Penicillin_G
                    3D
 Structure written by MMmdl.
 40 42  0  0  1  0            999 V2000
   -3.6453    1.3171    0.9596 C   0  0  0  0  0  0
   -3.1782   -0.0455    1.5313 C   0  0  0  0  0  0
   -2.6290   -0.0288    2.9972 C   0  0  1  0  0  0
   -1.2437    0.4638    2.9193 N   0  0  0  0  0  0
   -0.4921    0.0648    1.7286 C   0  0  1  0  0  0
   -1.7258   -0.5750    0.5670 S   0  0  0  0  0  0
    0.0059    1.5536    1.5987 C   0  0  1  0  0  0
   -0.6743    1.7433    2.9740 C   0  0  0  0  0  0
   -0.7408    2.6574    3.7940 O   0  0  0  0  0  0
    1.4309    1.8763    1.6027 N   0  0  0  0  0  0
    2.3578    1.2855    0.8305 C   0  0  0  0  0  0
    2.0943    0.3916    0.0249 O   0  0  0  0  0  0
    3.8044    1.7736    1.0020 C   0  0  0  0  0  0
    4.4620    2.1130   -0.3323 C   0  0  0  0  0  0
    5.2567    1.1643   -0.9835 C   0  0  0  0  0  0
    5.8393    1.4693   -2.2110 C   0  0  0  0  0  0
    5.6211    2.7192   -2.7870 C   0  0  0  0  0  0
    4.8226    3.6660   -2.1489 C   0  0  0  0  0  0
    4.2392    3.3615   -0.9217 C   0  0  0  0  0  0
   -3.5160    0.7026    4.0351 C   0  0  0  0  0  0
   -4.0281   -0.0120    4.9244 O   0  0  0  0  0  0
   -3.6880    1.9376    3.9277 O   0  5  0  0  0  0
   -4.2838   -1.1062    1.3553 C   0  0  0  0  0  0
   -2.5104   -1.0610    3.3307 H   0  0  0  0  0  0
    0.2665   -0.6960    1.9239 H   0  0  0  0  0  0
   -0.4568    2.1245    0.7920 H   0  0  0  0  0  0
   -4.5613    1.6599    1.4411 H   0  0  0  0  0  0
   -3.8581    1.2490   -0.1081 H   0  0  0  0  0  0
   -2.8985    2.0990    1.0931 H   0  0  0  0  0  0
    1.7078    2.6222    2.2246 H   0  0  0  0  0  0
    3.8441    2.6465    1.6568 H   0  0  0  0  0  0
    4.3659    0.9857    1.5060 H   0  0  0  0  0  0
    5.4211    0.1921   -0.5419 H   0  0  0  0  0  0
    6.4550    0.7392   -2.7152 H   0  0  0  0  0  0
    6.0728    2.9555   -3.7393 H   0  0  0  0  0  0
    4.6546    4.6305   -2.6050 H   0  0  0  0  0  0
    3.6149    4.0941   -0.4307 H   0  0  0  0  0  0
   -5.1685   -0.8528    1.9404 H   0  0  0  0  0  0
   -3.9511   -2.0924    1.6817 H   0  0  0  0  0  0
   -4.5959   -1.1932    0.3138 H   0  0  0  0  0  0
  1  2  1  0  0  0
  1 27  1  0  0  0
  1 28  1  0  0  0
  1 29  1  0  0  0
  2  6  1  0  0  0
  2  3  1  0  0  0
  2 23  1  0  0  0
  3 24  1  0  0  0
  3  4  1  0  0  0
  3 20  1  0  0  0
  4  8  1  0  0  0
  4  5  1  0  0  0
  5 25  1  0  0  0
  5  6  1  0  0  0
  5  7  1  0  0  0
  7 26  1  0  0  0
  7  8  1  0  0  0
  7 10  1  0  0  0
  8  9  2  0  0  0
 10 11  1  0  0  0
 10 30  1  0  0  0
 11 12  2  0  0  0
 11 13  1  0  0  0
 13 14  1  0  0  0
 13 31  1  0  0  0
 13 32  1  0  0  0
 14 19  1  0  0  0
 14 15  2  0  0  0
 15 16  1  0  0  0
 15 33  1  0  0  0
 16 17  2  0  0  0
 16 34  1  0  0  0
 17 18  1  0  0  0
 17 35  1  0  0  0
 18 19  2  0  0  0
 18 36  1  0  0  0
 19 37  1  0  0  0
 20 21  2  0  0  0
 20 22  1  0  0  0
 23 38  1  0  0  0
 23 39  1  0  0  0
 23 40  1  0  0  0
M  CHG  1  22  -1
M  END
> <s_m_source_file>
antibiotics.smi

> <i_m_source_file_index>
1

> <i_lp_mmshare_version>
45011

> <i_f3d_flags>
0

> <s_epik_input>
Tz1DKFtPSF0pW0NASF0xQyhbQ0gzXSkoW0NIM10pU1tDQEhdKE4xMilbQ0BASF0oQzI9TylbTkhdQyg9TylbQ0gyXWMzW2NIXVtjSF1bY0hdW2NIXVtjSF0z

> <s_epik_cmdline>
J2VwaWtfcHl0aG9uJywgJy1waCcsICc3LjInLCAnLXBodCcsICcwLjMnLCAnLW1zJywgJzEnLCAnLXRuJywgJzEnLCAnLW1hJywgJzIwMCcsICctaW1hZScsICc8aW5maWxlLm1hZT4nLCAnLW9tYWUnLCAnPG91dGZpbGUubWFlPic=

> <r_lp_tautomer_probability>
1

> <r_epik_Ionization_Penalty>
1.8591e-05

> <r_epik_Ionization_Penalty_Charging>
1.84704e-05

> <r_epik_Ionization_Penalty_Neutral>
1.20554e-07

> <r_epik_State_Penalty>
-0

> <r_epik_Charging_Adjusted_Penalty>
1.84704e-05

> <i_epik_Tot_Q>
-1

> <i_epik_Tot_abs_Q>
1

> <s_epik_Chemistry_Notes>
This compound contains an acetal/aminal-like group ( X-CH(R)-Y where X, Y are N, S, or O) that may be acid/base labile, releasing an aldehyde.

> <s_lp_Force_Field>
OPLS3e

> <r_lp_Energy>
23.7739

> <b_lp_Chiralities_Consistent>
1

> <s_lp_Variant>
Penicillin_G-1

$$$$
Ampicillin
                    3D
 Structure written by MMmdl.
 42 44  0  0  1  0            999 V2000
   -4.5311    0.1029    2.2990 C   0  0  0  0  0  0
   -3.0167    0.3919    2.4686 C   0  0  0  0  0  0
   -2.4707    1.7553    1.8852 C   0  0  1  0  0  0
   -1.1492    1.4403    1.3092 N   0  0  0  0  0  0
   -0.6242    0.0827    1.4112 C   0  0  1  0  0  0
   -2.1104   -0.9187    1.5788 S   0  0  0  0  0  0
    0.0558    0.3008    0.0128 C   0  0  1  0  0  0
   -0.4707    1.7497    0.1236 C   0  0  0  0  0  0
   -0.4084    2.7632   -0.5701 O   0  0  0  0  0  0
    1.5093    0.1968   -0.1097 N   0  0  0  0  0  0
    2.1698   -0.7223   -0.8360 C   0  0  0  0  0  0
    1.6155   -1.6145   -1.4846 O   0  0  0  0  0  0
    3.7145   -0.6464   -0.7829 C   0  0  1  0  0  0
    4.2503   -1.7469    0.1072 C   0  0  0  0  0  0
    4.6909   -2.9652   -0.4290 C   0  0  0  0  0  0
    5.2176   -3.9504    0.4019 C   0  0  0  0  0  0
    5.3180   -3.7172    1.7709 C   0  0  0  0  0  0
    4.8990   -2.5062    2.3157 C   0  0  0  0  0  0
    4.3716   -1.5215    1.4844 C   0  0  0  0  0  0
    4.1621   -0.6057   -2.1888 N   0  0  0  0  0  0
   -3.4202    2.4695    0.8887 C   0  0  0  0  0  0
   -3.9252    3.5467    1.2737 O   0  0  0  0  0  0
   -3.6412    1.9274   -0.2181 O   0  5  0  0  0  0
   -2.6638    0.2929    3.9700 C   0  0  0  0  0  0
   -2.2722    2.4490    2.7034 H   0  0  0  0  0  0
    0.0320   -0.0621    2.2715 H   0  0  0  0  0  0
   -0.4193   -0.2658   -0.7916 H   0  0  0  0  0  0
    3.9757    0.3134   -0.3309 H   0  0  0  0  0  0
   -5.1358    0.8837    2.7617 H   0  0  0  0  0  0
   -4.8131   -0.8414    2.7665 H   0  0  0  0  0  0
   -4.8255    0.0349    1.2513 H   0  0  0  0  0  0
    2.0393    0.8759    0.4169 H   0  0  0  0  0  0
    4.6184   -3.1577   -1.4891 H   0  0  0  0  0  0
    5.5488   -4.8906   -0.0142 H   0  0  0  0  0  0
    5.7281   -4.4810    2.4152 H   0  0  0  0  0  0
    4.9855   -2.3307    3.3779 H   0  0  0  0  0  0
    4.0535   -0.5824    1.9134 H   0  0  0  0  0  0
    5.1674   -0.5248   -2.2406 H   0  0  0  0  0  0
    3.9221   -1.4670   -2.6589 H   0  0  0  0  0  0
   -3.1929    1.0517    4.5480 H   0  0  0  0  0  0
   -1.5979    0.4390    4.1482 H   0  0  0  0  0  0
   -2.9328   -0.6794    4.3853 H   0  0  0  0  0  0
  1  2  1  0  0  0
  1 29  1  0  0  0
  1 30  1  0  0  0
  1 31  1  0  0  0
  2  6  1  0  0  0
  2  3  1  0  0  0
  2 24  1  0  0  0
  3 25  1  0  0  0
  3  4  1  0  0  0
  3 21  1  0  0  0
  4  8  1  0  0  0
  4  5  1  0  0  0
  5 26  1  0  0  0
  5  6  1  0  0  0
  5  7  1  0  0  0
  7 27  1  0  0  0
  7  8  1  0  0  0
  7 10  1  0  0  0
  8  9  2  0  0  0
 10 11  1  0  0  0
 10 32  1  0  0  0
 11 12  2  0  0  0
 11 13  1  0  0  0
 13 28  1  0  0  0
 13 14  1  0  0  0
 13 20  1  0  0  0
 14 19  1  0  0  0
 14 15  2  0  0  0
 15 16  1  0  0  0
 15 33  1  0  0  0
 16 17  2  0  0  0
 16 34  1  0  0  0
 17 18  1  0  0  0
 17 35  1  0  0  0
 18 19  2  0  0  0
 18 36  1  0  0  0
 19 37  1  0  0  0
 20 38  1  0  0  0
 20 39  1  0  0  0
 21 22  2  0  0  0
 21 23  1  0  0  0
 24 40  1  0  0  0
 24 41  1  0  0  0
 24 42  1  0  0  0
M  CHG  1  23  -1
M  END
> <s_m_source_file>
antibiotics.smi

> <i_m_source_file_index>
2

> <i_lp_mmshare_version>
45011

> <i_f3d_flags>
0

> <s_epik_input>
Tz1DKFtPSF0pW0NASF0xQyhbQ0gzXSkoW0NIM10pU1tDQEhdKE4xMilbQ0BASF0oQzI9TylbTkhdQyg9TylbQ0BIXShbTkgyXSljM1tjSF1bY0hdW2NIXVtjSF1bY0hdMw==

> <s_epik_cmdline>
J2VwaWtfcHl0aG9uJywgJy1waCcsICc3LjInLCAnLXBodCcsICcwLjMnLCAnLW1zJywgJzEnLCAnLXRuJywgJzEnLCAnLW1hJywgJzIwMCcsICctaW1hZScsICc8aW5maWxlLm1hZT4nLCAnLW9tYWUnLCAnPG91dGZpbGUubWFlPic=

> <r_epik_Ionization_Penalty>
0.160141

> <r_epik_Ionization_Penalty_Charging>
1.80546e-05

> <r_epik_Ionization_Penalty_Neutral>
0.160123

> <r_epik_State_Penalty>
0.149433

> <r_epik_Charging_Adjusted_Penalty>
0.149451

> <i_epik_Tot_Q>
-1

> <i_epik_Tot_abs_Q>
1

> <s_epik_Chemistry_Notes>
This compound contains an acetal/aminal-like group ( X-CH(R)-Y where X, Y are N, S, or O) that may be acid/base labile, releasing an aldehyde.

> <s_lp_Force_Field>
OPLS3e

> <r_lp_Energy>
32.78

> <b_lp_Chiralities_Consistent>
1

> <s_lp_Variant>
Ampicillin-1

$$$$
Tetracycline
                    3D
 Structure written by MMmdl.
 55 58  0  0  1  0            999 V2000
    0.5081    0.8838   -5.4618 C   0  0  0  0  0  0
    1.4799   -0.1070   -4.7654 C   0  0  1  0  0  0
    2.8026    0.5412   -4.2915 C   0  0  0  0  0  0
    3.2861    1.7241   -4.8749 C   0  0  0  0  0  0
    4.4831    2.3008   -4.4774 C   0  0  0  0  0  0
    5.2280    1.7078   -3.4723 C   0  0  0  0  0  0
    4.7872    0.5330   -2.8688 C   0  0  0  0  0  0
    3.5811   -0.0929   -3.2873 C   0  0  0  0  0  0
    3.0217   -1.3337   -2.6472 C   0  0  0  0  0  0
    1.7085   -1.6712   -2.7383 C   0  0  0  0  0  0
    0.7428   -0.8604   -3.5987 C   0  0  1  0  0  0
   -0.1350   -0.0167   -2.6344 C   0  0  0  0  0  0
   -0.5771   -0.7635   -1.3311 C   0  0  2  0  0  0
    0.0159   -0.0943   -0.0519 C   0  0  1  0  0  0
   -0.4617   -0.7265    1.2441 C   0  0  0  0  0  0
   -0.6443    0.0374    2.1954 O   0  0  0  0  0  0
   -0.6483   -2.2023    1.2649 C   0  0  0  0  0  0
   -0.5920   -2.9134    0.0856 C   0  0  0  0  0  0
   -0.3618   -2.3301   -1.3497 C   0  0  2  0  0  0
    1.0318   -2.7318   -1.9559 C   0  0  0  0  0  0
    1.5321   -3.8490   -1.8129 O   0  0  0  0  0  0
   -1.3508   -2.8458   -2.2397 O   0  0  0  0  0  0
   -0.7085   -4.2035    0.0360 O   0  5  0  0  0  0
   -0.8868   -2.8257    2.5768 C   0  0  0  0  0  0
   -0.3276   -2.4557    3.6097 O   0  0  0  0  0  0
   -1.8042   -3.7984    2.6302 N   0  0  0  0  0  0
    1.5491   -0.0538   -0.0916 N   0  3  0  0  0  0
    2.4070   -0.9344    0.8548 C   0  0  0  0  0  0
    2.0859    1.3924   -0.0790 C   0  0  0  0  0  0
    3.8581   -2.0669   -1.9925 O   0  5  0  0  0  0
    5.5723    0.0621   -1.8456 O   0  0  0  0  0  0
    1.7648   -1.0601   -5.7776 O   0  0  0  0  0  0
    0.0645   -1.5642   -4.0920 H   0  0  0  0  0  0
   -1.6366   -0.5343   -1.1869 H   0  0  0  0  0  0
   -0.2896    0.9536   -0.0592 H   0  0  0  0  0  0
    0.3057    1.7537   -4.8361 H   0  0  0  0  0  0
   -0.4521    0.4141   -5.6814 H   0  0  0  0  0  0
    0.8957    1.2508   -6.4134 H   0  0  0  0  0  0
    2.7375    2.2174   -5.6617 H   0  0  0  0  0  0
    4.8290    3.2111   -4.9447 H   0  0  0  0  0  0
    6.1499    2.1742   -3.1552 H   0  0  0  0  0  0
    0.1852    1.0126   -2.4741 H   0  0  0  0  0  0
   -1.0468    0.0705   -3.2283 H   0  0  0  0  0  0
   -1.3054   -3.8049   -2.2089 H   0  0  0  0  0  0
   -2.2581   -4.1129    1.7851 H   0  0  0  0  0  0
   -2.0229   -4.2406    3.5103 H   0  0  0  0  0  0
    2.2583   -0.5836    1.8769 H   0  0  0  0  0  0
    3.4470   -0.8210    0.5471 H   0  0  0  0  0  0
    2.0916   -1.9692    0.7269 H   0  0  0  0  0  0
    1.8855    1.8040    0.9113 H   0  0  0  0  0  0
    1.5675    1.9491   -0.8596 H   0  0  0  0  0  0
    3.1549    1.3478   -0.2905 H   0  0  0  0  0  0
    6.3603    0.5915   -1.7061 H   0  0  0  0  0  0
    0.9343   -1.4003   -6.1172 H   0  0  0  0  0  0
    1.7475   -0.4068   -1.0180 H   0  0  0  0  0  0
  1  2  1  0  0  0
  1 36  1  0  0  0
  1 37  1  0  0  0
  1 38  1  0  0  0
  2 11  1  0  0  0
  2  3  1  0  0  0
  2 32  1  0  0  0
  3  8  2  0  0  0
  3  4  1  0  0  0
  4  5  2  0  0  0
  4 39  1  0  0  0
  5  6  1  0  0  0
  5 40  1  0  0  0
  6  7  2  0  0  0
  6 41  1  0  0  0
  7  8  1  0  0  0
  7 31  1  0  0  0
  8  9  1  0  0  0
  9 10  2  0  0  0
  9 30  1  0  0  0
 10 20  1  0  0  0
 10 11  1  0  0  0
 11 33  1  0  0  0
 11 12  1  0  0  0
 12 13  1  0  0  0
 12 42  1  0  0  0
 12 43  1  0  0  0
 13 34  1  0  0  0
 13 19  1  0  0  0
 13 14  1  0  0  0
 14 35  1  0  0  0
 14 15  1  0  0  0
 14 27  1  0  0  0
 15 16  2  0  0  0
 15 17  1  0  0  0
 17 18  2  0  0  0
 17 24  1  0  0  0
 18 19  1  0  0  0
 18 23  1  0  0  0
 19 20  1  0  0  0
 19 22  1  0  0  0
 20 21  2  0  0  0
 22 44  1  0  0  0
 24 25  2  0  0  0
 24 26  1  0  0  0
 26 45  1  0  0  0
 26 46  1  0  0  0
 27 28  1  0  0  0
 27 29  1  0  0  0
 27 55  1  0  0  0
 28 47  1  0  0  0
 28 48  1  0  0  0
 28 49  1  0  0  0
 29 50  1  0  0  0
 29 51  1  0  0  0
 29 52  1  0  0  0
 31 53  1  0  0  0
 32 54  1  0  0  0
M  CHG  3  23  -1  27   1  30  -1
M  END
> <s_m_source_file>
antibiotics.smi

> <i_m_source_file_index>
3

> <i_lp_mmshare_version>
45011

> <i_f3d_flags>
0

> <s_epik_input>
W09IXWMxW2NIXVtjSF1bY0hdYyhbQ0BAXTIoW0NIM10pW09IXSljMUMoW09IXSk9QyhDMz1PKVtDQEhdMltDSDJdW0NAQEhdKFtDQEBdMzRbT0hdKVtDQEhdKE4oW0NIM10pW0NIM10pQyg9TylDKD1DNFtPSF0pQyg9TylbTkgyXQ==

> <s_epik_cmdline>
J2VwaWtfcHl0aG9uJywgJy1waCcsICc3LjInLCAnLXBodCcsICcwLjMnLCAnLW1zJywgJzEnLCAnLXRuJywgJzEnLCAnLW1hJywgJzIwMCcsICctaW1hZScsICc8aW5maWxlLm1hZT4nLCAnLW9tYWUnLCAnPG91dGZpbGUubWFlPic=

> <r_epik_Ionization_Penalty>
0.0361511

> <r_epik_Ionization_Penalty_Charging>
0.0361221

> <r_epik_Ionization_Penalty_Neutral>
2.90152e-05

> <r_epik_State_Penalty>
0.0205937

> <r_epik_Charging_Adjusted_Penalty>
0.0567158

> <i_epik_Tot_Q>
-1

> <i_epik_Tot_abs_Q>
3

> <s_lp_Force_Field>
OPLS3e

> <r_lp_Energy>
77.4945

> <b_lp_Chiralities_Consistent>
1

> <s_lp_Variant>
Tetracycline-1

$$$$
Sulfacetamide
                    3D
 Structure written by MMmdl.
 23 23  0  0  1  0            999 V2000
   -0.4309   -0.7071   -1.2556 O   0  0  0  0  0  0
   -0.0639   -0.0396    0.0000 S   0  0  0  0  0  0
   -0.4309   -0.7070    1.2556 O   0  0  0  0  0  0
    1.7330   -0.0155    0.0000 C   0  0  0  0  0  0
    2.4307    0.0058   -1.2111 C   0  0  0  0  0  0
    3.8229    0.0348   -1.2108 C   0  0  0  0  0  0
    4.5153    0.0474    0.0000 C   0  0  0  0  0  0
    5.9093    0.0751   -0.0000 N   0  0  0  0  0  0
    3.8229    0.0348    1.2108 C   0  0  0  0  0  0
    2.4307    0.0058    1.2112 C   0  0  0  0  0  0
   -0.3210    1.5106   -0.0001 N   0  5  0  0  0  0
   -1.5456    1.9774   -0.0000 C   0  0  0  0  0  0
   -2.5887    1.3184    0.0000 O   0  0  0  0  0  0
   -1.7044    3.4991   -0.0001 C   0  0  0  0  0  0
    1.8989    0.0024   -2.1513 H   0  0  0  0  0  0
    4.3556    0.0492   -2.1507 H   0  0  0  0  0  0
    6.4058    0.0840    0.8792 H   0  0  0  0  0  0
    6.4058    0.0841   -0.8792 H   0  0  0  0  0  0
    4.3556    0.0492    2.1508 H   0  0  0  0  0  0
    1.8989    0.0024    2.1513 H   0  0  0  0  0  0
   -0.7487    4.0270   -0.0000 H   0  0  0  0  0  0
   -2.2605    3.8169    0.8824 H   0  0  0  0  0  0
   -2.2604    3.8168   -0.8827 H   0  0  0  0  0  0
  1  2  2  0  0  0
  2  3  2  0  0  0
  2  4  1  0  0  0
  2 11  1  0  0  0
  4 10  1  0  0  0
  4  5  2  0  0  0
  5  6  1  0  0  0
  5 15  1  0  0  0
  6  7  2  0  0  0
  6 16  1  0  0  0
  7  8  1  0  0  0
  7  9  1  0  0  0
  8 17  1  0  0  0
  8 18  1  0  0  0
  9 10  2  0  0  0
  9 19  1  0  0  0
 10 20  1  0  0  0
 11 12  1  0  0  0
 12 13  2  0  0  0
 12 14  1  0  0  0
 14 21  1  0  0  0
 14 22  1  0  0  0
 14 23  1  0  0  0
M  CHG  1  11  -1
M  END
> <s_m_source_file>
antibiotics.smi

> <i_m_source_file_index>
4

> <i_lp_mmshare_version>
45011

> <i_f3d_flags>
0

> <s_epik_input>
Tz1DKFtDSDNdKVtOSF1TKD1PKSg9TyljMVtjSF1bY0hdYyhbTkgyXSlbY0hdW2NIXTE=

> <s_epik_cmdline>
J2VwaWtfcHl0aG9uJywgJy1waCcsICc3LjInLCAnLXBodCcsICcwLjMnLCAnLW1zJywgJzEnLCAnLXRuJywgJzEnLCAnLW1hJywgJzIwMCcsICctaW1hZScsICc8aW5maWxlLm1hZT4nLCAnLW9tYWUnLCAnPG91dGZpbGUubWFlPic=

> <r_lp_tautomer_probability>
1

> <r_epik_Ionization_Penalty>
0.0144563

> <r_epik_Ionization_Penalty_Charging>
0.013886

> <r_epik_Ionization_Penalty_Neutral>
0.000570218

> <r_epik_State_Penalty>
-0

> <r_epik_Charging_Adjusted_Penalty>
0.013886

> <i_epik_Tot_Q>
-1

> <i_epik_Tot_abs_Q>
1

> <s_lp_Force_Field>
OPLS3e

> <r_lp_Energy>
6.82942

> <b_lp_Chiralities_Consistent>
1

> <s_lp_Variant>
Sulfacetamide-1

$$$$
Sulfamethoxypyridazine
                    3D
 Structure written by MMmdl.
 31 32  0  0  1  0            999 V2000
   -0.5913   -0.5257   -1.2739 O   0  0  0  0  0  0
   -0.1277    0.0366   -0.0000 S   0  0  0  0  0  0
   -0.5913   -0.5257    1.2739 O   0  0  0  0  0  0
    1.6429   -0.0820   -0.0000 N   0  0  0  0  0  0
    2.3332   -1.3015   -0.0000 C   0  0  0  0  0  0
    1.6388   -2.4736    0.0000 N   0  0  0  0  0  0
    2.2891   -3.6499   -0.0000 N   0  0  0  0  0  0
    3.6552   -3.6777   -0.0000 C   0  0  0  0  0  0
    4.3182   -4.8915   -0.0000 O   0  0  0  0  0  0
    3.5641   -6.1027    0.0000 C   0  0  0  0  0  0
    4.4066   -2.5028   -0.0000 C   0  0  0  0  0  0
    3.7293   -1.2847   -0.0000 C   0  0  0  0  0  0
   -0.4741    1.7919   -0.0000 C   0  0  0  0  0  0
   -0.6002    2.4746    1.2117 C   0  0  0  0  0  0
   -0.8616    3.8424    1.2110 C   0  0  0  0  0  0
   -0.9931    4.5223   -0.0000 C   0  0  0  0  0  0
   -1.2568    5.8914    0.0000 N   0  0  0  0  0  0
   -0.8616    3.8424   -1.2111 C   0  0  0  0  0  0
   -0.6002    2.4746   -1.2117 C   0  0  0  0  0  0
    2.1783    0.7733    0.0000 H   0  0  0  0  0  0
    4.2456   -6.9533    0.0000 H   0  0  0  0  0  0
    2.9352   -6.1815   -0.8882 H   0  0  0  0  0  0
    2.9352   -6.1815    0.8882 H   0  0  0  0  0  0
    5.4863   -2.5349   -0.0000 H   0  0  0  0  0  0
    4.2796   -0.3549   -0.0000 H   0  0  0  0  0  0
   -0.4962    1.9523    2.1515 H   0  0  0  0  0  0
   -0.9597    4.3663    2.1510 H   0  0  0  0  0  0
   -1.3589    6.3782   -0.8789 H   0  0  0  0  0  0
   -1.3589    6.3782    0.8788 H   0  0  0  0  0  0
   -0.9597    4.3663   -2.1510 H   0  0  0  0  0  0
   -0.4962    1.9523   -2.1515 H   0  0  0  0  0  0
  1  2  2  0  0  0
  2  3  2  0  0  0
  2  4  1  0  0  0
  2 13  1  0  0  0
  4  5  1  0  0  0
  4 20  1  0  0  0
  5 12  1  0  0  0
  5  6  2  0  0  0
  6  7  1  0  0  0
  7  8  2  0  0  0
  8  9  1  0  0  0
  8 11  1  0  0  0
  9 10  1  0  0  0
 10 21  1  0  0  0
 10 22  1  0  0  0
 10 23  1  0  0  0
 11 12  2  0  0  0
 11 24  1  0  0  0
 12 25  1  0  0  0
 13 19  1  0  0  0
 13 14  2  0  0  0
 14 15  1  0  0  0
 14 26  1  0  0  0
 15 16  2  0  0  0
 15 27  1  0  0  0
 16 17  1  0  0  0
 16 18  1  0  0  0
 17 28  1  0  0  0
 17 29  1  0  0  0
 18 19  2  0  0  0
 18 30  1  0  0  0
 19 31  1  0  0  0
M  END
> <s_m_source_file>
antibiotics.smi

> <i_m_source_file_index>
5

> <i_lp_mmshare_version>
45011

> <i_f3d_flags>
0

> <s_epik_input>
W2NIXTFbY0hdYyhbTkgyXSlbY0hdW2NIXWMxUyg9TykoPU8pW05IXWMybm5jKE9bQ0gzXSlbY0hdW2NIXTI=

> <s_epik_cmdline>
J2VwaWtfcHl0aG9uJywgJy1waCcsICc3LjInLCAnLXBodCcsICcwLjMnLCAnLW1zJywgJzEnLCAnLXRuJywgJzEnLCAnLW1hJywgJzIwMCcsICctaW1hZScsICc8aW5maWxlLm1hZT4nLCAnLW9tYWUnLCAnPG91dGZpbGUubWFlPic=

> <r_epik_Ionization_Penalty>
0.148339

> <r_epik_Ionization_Penalty_Charging>
0

> <r_epik_Ionization_Penalty_Neutral>
0.148339

> <r_epik_State_Penalty>
0.137608

> <r_epik_Charging_Adjusted_Penalty>
0.137608

> <i_epik_Tot_Q>
0

> <i_epik_Tot_abs_Q>
0

> <s_lp_Force_Field>
OPLS3e

> <r_lp_Energy>
22.042

> <b_lp_Chiralities_Consistent>
1

> <s_lp_Variant>
Sulfamethoxypyridazine-1

$$$$
Amprenavir
                    3D
 Structure written by MMmdl.
 70 72  0  0  1  0            999 V2000
   -4.2377   -0.6940    0.1311 O   0  0  0  0  0  0
   -3.6324   -0.6031    1.2018 C   0  0  0  0  0  0
   -4.0606   -1.1136    2.3759 O   0  0  0  0  0  0
   -5.3175   -1.7849    2.4861 C   0  0  1  0  0  0
   -5.3080   -2.7110    3.6928 C   0  0  0  0  0  0
   -6.1705   -1.9989    4.7406 C   0  0  0  0  0  0
   -6.4262   -0.6976    4.2195 O   0  0  0  0  0  0
   -6.4289   -0.7797    2.8008 C   0  0  0  0  0  0
   -2.4299    0.0568    1.4138 N   0  0  0  0  0  0
   -1.7386    0.8470    0.3823 C   0  0  1  0  0  0
   -2.1146    2.3537    0.4691 C   0  0  0  0  0  0
   -3.6025    2.6398    0.2960 C   0  0  0  0  0  0
   -4.1658    2.6365   -0.9829 C   0  0  0  0  0  0
   -5.5296    2.8677   -1.1419 C   0  0  0  0  0  0
   -6.3249    3.1025   -0.0220 C   0  0  0  0  0  0
   -5.7689    3.1113    1.2555 C   0  0  0  0  0  0
   -4.4052    2.8815    1.4151 C   0  0  0  0  0  0
   -0.2018    0.6092    0.4293 C   0  0  2  0  0  0
    0.4114    1.2571   -0.6726 O   0  0  0  0  0  0
    0.1882   -0.8935    0.4389 C   0  0  0  0  0  0
    1.6533   -1.1305    0.3315 N   0  0  0  0  0  0
    2.4071   -1.4755    1.5646 C   0  0  0  0  0  0
    2.5487   -0.3018    2.5606 C   0  0  0  0  0  0
    3.2211    0.9379    1.9347 C   0  0  0  0  0  0
    3.3194   -0.7557    3.8126 C   0  0  0  0  0  0
    2.3274   -1.6333   -1.2282 S   0  0  0  0  0  0
    2.7275   -3.0406   -1.1119 O   0  0  0  0  0  0
    1.4098   -1.2047   -2.2907 O   0  0  0  0  0  0
    3.8187   -0.6549   -1.3975 C   0  0  0  0  0  0
    3.7408    0.6354   -1.9261 C   0  0  0  0  0  0
    4.8913    1.4126   -2.0281 C   0  0  0  0  0  0
    6.1150    0.8978   -1.6006 C   0  0  0  0  0  0
    7.2663    1.6772   -1.7007 N   0  0  0  0  0  0
    6.1949   -0.3904   -1.0720 C   0  0  0  0  0  0
    5.0450   -1.1683   -0.9691 C   0  0  0  0  0  0
   -5.5403   -2.3439    1.5749 H   0  0  0  0  0  0
   -2.0626    0.4806   -0.5958 H   0  0  0  0  0  0
    0.1705    1.0702    1.3446 H   0  0  0  0  0  0
   -5.7012   -3.6986    3.4490 H   0  0  0  0  0  0
   -4.3009   -2.8406    4.0934 H   0  0  0  0  0  0
   -7.1196   -2.5138    4.8986 H   0  0  0  0  0  0
   -5.6819   -1.9278    5.7130 H   0  0  0  0  0  0
   -6.2660    0.2046    2.3596 H   0  0  0  0  0  0
   -7.4088   -1.1023    2.4454 H   0  0  0  0  0  0
   -2.0543    0.0706    2.3507 H   0  0  0  0  0  0
   -1.7778    2.7666    1.4217 H   0  0  0  0  0  0
   -1.5786    2.9258   -0.2896 H   0  0  0  0  0  0
   -3.5505    2.4444   -1.8500 H   0  0  0  0  0  0
   -5.9692    2.8603   -2.1283 H   0  0  0  0  0  0
   -7.3832    3.2780   -0.1456 H   0  0  0  0  0  0
   -6.3931    3.2906    2.1184 H   0  0  0  0  0  0
   -3.9779    2.8784    2.4073 H   0  0  0  0  0  0
    1.3502    1.0580   -0.6558 H   0  0  0  0  0  0
   -0.1507   -1.3400    1.3745 H   0  0  0  0  0  0
   -0.3263   -1.4221   -0.3646 H   0  0  0  0  0  0
    1.9806   -2.3732    2.0141 H   0  0  0  0  0  0
    3.4132   -1.7684    1.2643 H   0  0  0  0  0  0
    1.5518   -0.0305    2.9098 H   0  0  0  0  0  0
    4.2288    0.7098    1.5845 H   0  0  0  0  0  0
    3.2979    1.7524    2.6557 H   0  0  0  0  0  0
    2.6585    1.3178    1.0824 H   0  0  0  0  0  0
    4.3382   -1.0592    3.5683 H   0  0  0  0  0  0
    2.8281   -1.6028    4.2932 H   0  0  0  0  0  0
    3.3806    0.0442    4.5516 H   0  0  0  0  0  0
    2.7945    1.0406   -2.2535 H   0  0  0  0  0  0
    4.8264    2.4109   -2.4366 H   0  0  0  0  0  0
    8.1511    1.2980   -1.3958 H   0  0  0  0  0  0
    7.2045    2.6081   -2.0871 H   0  0  0  0  0  0
    7.1415   -0.7913   -0.7385 H   0  0  0  0  0  0
    5.1114   -2.1624   -0.5517 H   0  0  0  0  0  0
  1  2  2  0  0  0
  2  3  1  0  0  0
  2  9  1  0  0  0
  3  4  1  0  0  0
  4 36  1  0  0  0
  4  8  1  0  0  0
  4  5  1  0  0  0
  5  6  1  0  0  0
  5 39  1  0  0  0
  5 40  1  0  0  0
  6  7  1  0  0  0
  6 41  1  0  0  0
  6 42  1  0  0  0
  7  8  1  0  0  0
  8 43  1  0  0  0
  8 44  1  0  0  0
  9 10  1  0  0  0
  9 45  1  0  0  0
 10 37  1  0  0  0
 10 11  1  0  0  0
 10 18  1  0  0  0
 11 12  1  0  0  0
 11 46  1  0  0  0
 11 47  1  0  0  0
 12 17  1  0  0  0
 12 13  2  0  0  0
 13 14  1  0  0  0
 13 48  1  0  0  0
 14 15  2  0  0  0
 14 49  1  0  0  0
 15 16  1  0  0  0
 15 50  1  0  0  0
 16 17  2  0  0  0
 16 51  1  0  0  0
 17 52  1  0  0  0
 18 38  1  0  0  0
 18 19  1  0  0  0
 18 20  1  0  0  0
 19 53  1  0  0  0
 20 21  1  0  0  0
 20 54  1  0  0  0
 20 55  1  0  0  0
 21 22  1  0  0  0
 21 26  1  0  0  0
 22 23  1  0  0  0
 22 56  1  0  0  0
 22 57  1  0  0  0
 23 24  1  0  0  0
 23 25  1  0  0  0
 23 58  1  0  0  0
 24 59  1  0  0  0
 24 60  1  0  0  0
 24 61  1  0  0  0
 25 62  1  0  0  0
 25 63  1  0  0  0
 25 64  1  0  0  0
 26 27  2  0  0  0
 26 28  2  0  0  0
 26 29  1  0  0  0
 29 35  1  0  0  0
 29 30  2  0  0  0
 30 31  1  0  0  0
 30 65  1  0  0  0
 31 32  2  0  0  0
 31 66  1  0  0  0
 32 33  1  0  0  0
 32 34  1  0  0  0
 33 67  1  0  0  0
 33 68  1  0  0  0
 34 35  2  0  0  0
 34 69  1  0  0  0
 35 70  1  0  0  0
M  END
> <s_m_source_file>
antibiotics.smi

> <i_m_source_file_index>
6

> <i_lp_mmshare_version>
45011

> <i_f3d_flags>
0

> <s_epik_input>
W0NIMl0xT1tDSDJdW0NIMl1bQ0BASF0xT0MoPU8pW05IXVtDQEBIXShbQ0gyXWMyW2NIXVtjSF1bY0hdW2NIXVtjSF0yKVtDQEhdKFtPSF0pW0NIMl1OKFtDSDJdW0NIXShbQ0gzXSlbQ0gzXSlTKD1PKSg9TyljM1tjSF1bY0hdYyhbTkgyXSlbY0hdW2NIXTM=

> <s_epik_cmdline>
J2VwaWtfcHl0aG9uJywgJy1waCcsICc3LjInLCAnLXBodCcsICcwLjMnLCAnLW1zJywgJzEnLCAnLXRuJywgJzEnLCAnLW1hJywgJzIwMCcsICctaW1hZScsICc8aW5maWxlLm1hZT4nLCAnLW9tYWUnLCAnPG91dGZpbGUubWFlPic=

> <r_lp_tautomer_probability>
1

> <r_epik_Ionization_Penalty>
1.07122e-05

> <r_epik_Ionization_Penalty_Charging>
0

> <r_epik_Ionization_Penalty_Neutral>
1.07122e-05

> <r_epik_State_Penalty>
-0

> <r_epik_Charging_Adjusted_Penalty>
0

> <i_epik_Tot_Q>
0

> <i_epik_Tot_abs_Q>
0

> <s_epik_Chemistry_Notes>
This compound has an ester and may undergo hydrolysis at high or low pH.

> <s_lp_Force_Field>
OPLS3e

> <r_lp_Energy>
20.8065

> <b_lp_Chiralities_Consistent>
1

> <s_lp_Variant>
Amprenavir-1

$$$$
Asunaprevir
                    3D
 Structure written by MMmdl.
 96100  0  0  1  0            999 V2000
    0.2449    1.9314    1.9881 O   0  0  0  0  0  0
   -0.3070    2.2063    0.9197 C   0  0  0  0  0  0
   -0.5022    1.2811   -0.0593 N   0  0  0  0  0  0
   -0.0975   -0.1321    0.0867 C   0  0  2  0  0  0
    1.4168   -0.3066   -0.1645 C   0  0  0  0  0  0
    1.9269    0.1206   -1.2027 O   0  0  0  0  0  0
    2.0993   -0.9850    0.7756 N   0  0  0  0  0  0
    3.5469   -1.2212    0.7837 C   0  0  1  0  0  0
    4.3615   -0.2095    1.6212 C   0  0  0  0  0  0
    4.9995    0.6483    1.0039 O   0  0  0  0  0  0
    4.2900   -0.3452    2.9253 N   0  5  0  0  0  0
    5.0226    0.6389    3.9112 S   0  0  0  0  0  0
    4.8514    0.2205    5.3073 O   0  0  0  0  0  0
    6.3958    0.9720    3.5111 O   0  0  0  0  0  0
    4.0401    2.2601    3.7357 C   0  0  0  0  0  0
    4.0131    3.1833    4.9290 C   0  0  0  0  0  0
    2.7768    2.3911    4.5526 C   0  0  0  0  0  0
    4.0019   -2.6758    0.7047 C   0  0  2  0  0  0
    5.2063   -3.2216    1.4575 C   0  0  0  0  0  0
    5.2671   -4.4459    2.0026 C   0  0  0  0  0  0
    4.2643   -1.7559   -0.4609 C   0  0  0  0  0  0
   -0.9640   -0.9069   -0.9289 C   0  0  0  0  0  0
   -2.0387    0.0741   -1.3848 C   0  0  1  0  0  0
   -3.1640   -0.0694   -0.5062 O   0  0  0  0  0  0
   -4.3410    0.6366   -0.7042 C   0  0  0  0  0  0
   -4.4597    1.3996   -1.8212 N   0  0  0  0  0  0
   -5.5918    2.1189   -1.9867 C   0  0  0  0  0  0
   -6.6654    2.1211   -1.0825 C   0  0  0  0  0  0
   -7.8189    2.8668   -1.2530 O   0  0  0  0  0  0
   -7.9194    3.7477   -2.3665 C   0  0  0  0  0  0
   -6.5516    1.2988    0.0786 C   0  0  0  0  0  0
   -5.3587    0.5351    0.2788 C   0  0  0  0  0  0
   -5.2365   -0.2753    1.4381 C   0  0  0  0  0  0
   -6.2691   -0.3316    2.3696 C   0  0  0  0  0  0
   -6.0988   -1.3145    3.7778 Cl  0  0  0  0  0  0
   -7.4331    0.4045    2.1765 C   0  0  0  0  0  0
   -7.5826    1.2131    1.0532 C   0  0  0  0  0  0
   -1.3878    1.4529   -1.2133 C   0  0  0  0  0  0
   -0.6677    3.7023    0.6592 C   0  0  1  0  0  0
   -1.5603    4.2030    1.7222 N   0  0  0  0  0  0
   -2.9375    4.0180    1.6646 C   0  0  0  0  0  0
   -3.5552    3.4189    0.7829 O   0  0  0  0  0  0
   -3.4997    4.6029    2.7562 O   0  0  0  0  0  0
   -4.8944    4.5399    3.1105 C   0  0  0  0  0  0
   -5.3015    3.0870    3.4497 C   0  0  0  0  0  0
   -5.8085    5.1262    2.0040 C   0  0  0  0  0  0
   -5.0078    5.4131    4.3766 C   0  0  0  0  0  0
    0.5650    4.6570    0.4159 C   0  0  0  0  0  0
    0.0821    6.0919    0.0769 C   0  0  0  0  0  0
    1.4085    4.1553   -0.7872 C   0  0  0  0  0  0
    1.4993    4.7512    1.6516 C   0  0  0  0  0  0
   -0.2787   -0.4687    1.1097 H   0  0  0  0  0  0
    3.2084   -3.4086    0.5488 H   0  0  0  0  0  0
   -2.3544   -0.1054   -2.4143 H   0  0  0  0  0  0
   -1.2208    3.7921   -0.2737 H   0  0  0  0  0  0
    1.6141   -1.2316    1.6258 H   0  0  0  0  0  0
    4.0919    2.6660    2.7259 H   0  0  0  0  0  0
    4.5740    2.9037    5.8212 H   0  0  0  0  0  0
    4.0307    4.2580    4.7478 H   0  0  0  0  0  0
    1.9266    2.9109    4.1118 H   0  0  0  0  0  0
    2.4686    1.5522    5.1767 H   0  0  0  0  0  0
    6.0610   -2.5665    1.5497 H   0  0  0  0  0  0
    4.4370   -5.1337    1.9345 H   0  0  0  0  0  0
    6.1520   -4.7759    2.5265 H   0  0  0  0  0  0
    3.7055   -1.9299   -1.3805 H   0  0  0  0  0  0
    5.3168   -1.5420   -0.6557 H   0  0  0  0  0  0
   -0.4085   -1.2310   -1.8116 H   0  0  0  0  0  0
   -1.3979   -1.7883   -0.4540 H   0  0  0  0  0  0
   -5.6121    2.7118   -2.8883 H   0  0  0  0  0  0
   -8.8750    4.2705   -2.3268 H   0  0  0  0  0  0
   -7.8798    3.2041   -3.3114 H   0  0  0  0  0  0
   -7.1303    4.5010   -2.3525 H   0  0  0  0  0  0
   -4.3343   -0.8483    1.5973 H   0  0  0  0  0  0
   -8.2279    0.3554    2.9066 H   0  0  0  0  0  0
   -8.4918    1.7823    0.9236 H   0  0  0  0  0  0
   -2.1191    2.2579   -1.2357 H   0  0  0  0  0  0
   -0.7611    1.5856   -2.0961 H   0  0  0  0  0  0
   -1.1494    4.6467    2.5304 H   0  0  0  0  0  0
   -6.3325    3.0311    3.8011 H   0  0  0  0  0  0
   -4.6639    2.6651    4.2276 H   0  0  0  0  0  0
   -5.2192    2.4341    2.5829 H   0  0  0  0  0  0
   -5.8352    4.5020    1.1107 H   0  0  0  0  0  0
   -5.4715    6.1170    1.6972 H   0  0  0  0  0  0
   -6.8379    5.2239    2.3508 H   0  0  0  0  0  0
   -6.0294    5.4379    4.7585 H   0  0  0  0  0  0
   -4.7061    6.4429    4.1795 H   0  0  0  0  0  0
   -4.3680    5.0406    5.1779 H   0  0  0  0  0  0
    0.9206    6.7621   -0.1183 H   0  0  0  0  0  0
   -0.4889    6.5361    0.8930 H   0  0  0  0  0  0
   -0.5475    6.1029   -0.8138 H   0  0  0  0  0  0
    0.8130    4.0947   -1.6991 H   0  0  0  0  0  0
    1.8411    3.1703   -0.6065 H   0  0  0  0  0  0
    2.2441    4.8252   -0.9949 H   0  0  0  0  0  0
    2.2800    5.4989    1.5049 H   0  0  0  0  0  0
    2.0170    3.8118    1.8438 H   0  0  0  0  0  0
    0.9569    5.0279    2.5560 H   0  0  0  0  0  0
  1  2  2  0  0  0
  2  3  1  0  0  0
  2 39  1  0  0  0
  3 38  1  0  0  0
  3  4  1  0  0  0
  4 52  1  0  0  0
  4  5  1  0  0  0
  4 22  1  0  0  0
  5  6  2  0  0  0
  5  7  1  0  0  0
  7  8  1  0  0  0
  7 56  1  0  0  0
  8 21  1  0  0  0
  8  9  1  0  0  0
  8 18  1  0  0  0
  9 10  2  0  0  0
  9 11  1  0  0  0
 11 12  1  0  0  0
 12 13  2  0  0  0
 12 14  2  0  0  0
 12 15  1  0  0  0
 15 17  1  0  0  0
 15 16  1  0  0  0
 15 57  1  0  0  0
 16 17  1  0  0  0
 16 58  1  0  0  0
 16 59  1  0  0  0
 17 60  1  0  0  0
 17 61  1  0  0  0
 18 53  1  0  0  0
 18 19  1  0  0  0
 18 21  1  0  0  0
 19 20  2  0  0  0
 19 62  1  0  0  0
 20 63  1  0  0  0
 20 64  1  0  0  0
 21 65  1  0  0  0
 21 66  1  0  0  0
 22 23  1  0  0  0
 22 67  1  0  0  0
 22 68  1  0  0  0
 23 54  1  0  0  0
 23 24  1  0  0  0
 23 38  1  0  0  0
 24 25  1  0  0  0
 25 32  1  0  0  0
 25 26  2  0  0  0
 26 27  1  0  0  0
 27 28  2  0  0  0
 27 69  1  0  0  0
 28 29  1  0  0  0
 28 31  1  0  0  0
 29 30  1  0  0  0
 30 70  1  0  0  0
 30 71  1  0  0  0
 30 72  1  0  0  0
 31 37  2  0  0  0
 31 32  1  0  0  0
 32 33  2  0  0  0
 33 34  1  0  0  0
 33 73  1  0  0  0
 34 35  1  0  0  0
 34 36  2  0  0  0
 36 37  1  0  0  0
 36 74  1  0  0  0
 37 75  1  0  0  0
 38 76  1  0  0  0
 38 77  1  0  0  0
 39 55  1  0  0  0
 39 40  1  0  0  0
 39 48  1  0  0  0
 40 41  1  0  0  0
 40 78  1  0  0  0
 41 42  2  0  0  0
 41 43  1  0  0  0
 43 44  1  0  0  0
 44 45  1  0  0  0
 44 46  1  0  0  0
 44 47  1  0  0  0
 45 79  1  0  0  0
 45 80  1  0  0  0
 45 81  1  0  0  0
 46 82  1  0  0  0
 46 83  1  0  0  0
 46 84  1  0  0  0
 47 85  1  0  0  0
 47 86  1  0  0  0
 47 87  1  0  0  0
 48 49  1  0  0  0
 48 50  1  0  0  0
 48 51  1  0  0  0
 49 88  1  0  0  0
 49 89  1  0  0  0
 49 90  1  0  0  0
 50 91  1  0  0  0
 50 92  1  0  0  0
 50 93  1  0  0  0
 51 94  1  0  0  0
 51 95  1  0  0  0
 51 96  1  0  0  0
M  CHG  1  11  -1
M  END
> <s_m_source_file>
antibiotics.smi

> <i_m_source_file_index>
7

> <i_lp_mmshare_version>
45011

> <i_f3d_flags>
0

> <s_epik_input>
W0NIM11PYzFbY0hdbmMoYyhjMTIpW2NIXWMoQ2wpW2NIXVtjSF0yKU9bQ0BASF0oW0NIMl0zKVtDSDJdW0NASF0oTjNDKD1PKVtDQEhdKEMoW0NIM10pKFtDSDNdKVtDSDNdKVtOSF1DKD1PKU9DKFtDSDNdKShbQ0gzXSlbQ0gzXSlDKD1PKVtOSF1bQ0BdNChbQ0BASF0oW0NIMl00KVtDSF09W0NIMl0pQyg9TylbTkhdUyg9TykoPU8pW0NIXTVbQ0gyXVtDSDJdNQ==

> <s_epik_cmdline>
J2VwaWtfcHl0aG9uJywgJy1waCcsICc3LjInLCAnLXBodCcsICcwLjMnLCAnLW1zJywgJzEnLCAnLXRuJywgJzEnLCAnLW1hJywgJzIwMCcsICctaW1hZScsICc8aW5maWxlLm1hZT4nLCAnLW9tYWUnLCAnPG91dGZpbGUubWFlPic=

> <r_lp_tautomer_probability>
1

> <r_epik_Ionization_Penalty>
0.00510421

> <r_epik_Ionization_Penalty_Charging>
0.00510102

> <r_epik_Ionization_Penalty_Neutral>
3.19477e-06

> <r_epik_State_Penalty>
-0

> <r_epik_Charging_Adjusted_Penalty>
0.00510102

> <i_epik_Tot_Q>
-1

> <i_epik_Tot_abs_Q>
1

> <s_epik_Chemistry_Notes>
This compound has an ester and may undergo hydrolysis at high or low pH.

> <s_lp_Force_Field>
OPLS3e

> <r_lp_Energy>
48.9375

> <b_lp_Chiralities_Consistent>
1

> <s_lp_Variant>
Asunaprevir-1

$$$$
Lincomycin
                    3D
 Structure written by MMmdl.
 62 63  0  0  1  0            999 V2000
   -0.6718    0.8216   -1.3417 O   0  0  0  0  0  0
   -0.9635    0.3350   -0.2472 C   0  0  0  0  0  0
   -0.0466   -0.0488    0.6588 N   0  0  0  0  0  0
    1.4145    0.0424    0.5041 C   0  0  1  0  0  0
    2.0902    0.4975    1.8301 C   0  0  1  0  0  0
    3.4948    0.6826    1.6014 O   0  0  0  0  0  0
    4.3031    0.9627    2.7502 C   0  0  2  0  0  0
    4.3966   -0.4858    3.8640 S   0  0  0  0  0  0
    5.2840   -1.6492    2.7947 C   0  0  0  0  0  0
    3.7981    2.2528    3.4488 C   0  0  2  0  0  0
    4.5577    2.5653    4.6034 O   0  0  0  0  0  0
    2.2759    2.1953    3.7254 C   0  0  1  0  0  0
    1.7784    3.3934    4.2983 O   0  0  0  0  0  0
    1.5045    1.8049    2.4406 C   0  0  1  0  0  0
    1.4641    2.8610    1.4920 O   0  0  0  0  0  0
    2.0420   -1.2663   -0.0683 C   0  0  2  0  0  0
    1.6313   -1.4648   -1.4086 O   0  0  0  0  0  0
    1.6996   -2.5469    0.7192 C   0  0  0  0  0  0
   -2.4442    0.1612    0.1667 C   0  0  1  0  0  0
   -3.0892    1.5015    0.6486 N   0  3  1  0  0  0
   -2.3093    2.8326    0.5160 C   0  0  0  0  0  0
   -4.4338    1.5812   -0.1012 C   0  0  0  0  0  0
   -4.1974    0.8599   -1.4301 C   0  0  2  0  0  0
   -5.5072    0.4889   -2.1570 C   0  0  0  0  0  0
   -5.2864   -0.1734   -3.5297 C   0  0  0  0  0  0
   -6.5998   -0.4770   -4.2632 C   0  0  0  0  0  0
   -3.3306   -0.3249   -1.0017 C   0  0  0  0  0  0
    1.6394    0.8324   -0.2172 H   0  0  0  0  0  0
    1.9442   -0.3077    2.5510 H   0  0  0  0  0  0
    5.3251    1.1309    2.4074 H   0  0  0  0  0  0
    3.9843    3.0834    2.7659 H   0  0  0  0  0  0
    2.0920    1.4264    4.4779 H   0  0  0  0  0  0
    0.4626    1.6318    2.7140 H   0  0  0  0  0  0
    3.1278   -1.1653   -0.0954 H   0  0  0  0  0  0
   -2.5156   -0.5249    1.0134 H   0  0  0  0  0  0
   -3.6081    1.5333   -2.0563 H   0  0  0  0  0  0
   -0.3722   -0.4104    1.5433 H   0  0  0  0  0  0
    5.4318   -2.5972    3.3118 H   0  0  0  0  0  0
    6.2601   -1.2485    2.5214 H   0  0  0  0  0  0
    4.7170   -1.8379    1.8832 H   0  0  0  0  0  0
    4.6683    1.7641    5.1212 H   0  0  0  0  0  0
    1.9164    4.1108    3.6754 H   0  0  0  0  0  0
    2.3644    3.0744    1.2346 H   0  0  0  0  0  0
    1.8336   -0.6734   -1.9130 H   0  0  0  0  0  0
    2.0578   -2.4887    1.7469 H   0  0  0  0  0  0
    2.1652   -3.4241    0.2682 H   0  0  0  0  0  0
    0.6248   -2.7281    0.7543 H   0  0  0  0  0  0
   -2.1027    3.0060   -0.5411 H   0  0  0  0  0  0
   -1.3955    2.7346    1.1024 H   0  0  0  0  0  0
   -2.9435    3.6164    0.9319 H   0  0  0  0  0  0
   -5.1599    1.0649    0.5300 H   0  0  0  0  0  0
   -4.7791    2.6135   -0.1804 H   0  0  0  0  0  0
   -6.1070   -0.1704   -1.5274 H   0  0  0  0  0  0
   -6.1013    1.3940   -2.2941 H   0  0  0  0  0  0
   -4.6708    0.4750   -4.1549 H   0  0  0  0  0  0
   -4.7272   -1.1017   -3.4077 H   0  0  0  0  0  0
   -6.4070   -0.9489   -5.2270 H   0  0  0  0  0  0
   -7.1686    0.4345   -4.4497 H   0  0  0  0  0  0
   -7.2303   -1.1531   -3.6848 H   0  0  0  0  0  0
   -2.8175   -0.8221   -1.8274 H   0  0  0  0  0  0
   -3.9951   -1.0874   -0.5901 H   0  0  0  0  0  0
   -3.3034    1.3962    1.6305 H   0  0  0  0  0  0
  1  2  2  0  0  0
  2  3  1  0  0  0
  2 19  1  0  0  0
  3  4  1  0  0  0
  3 37  1  0  0  0
  4 28  1  0  0  0
  4  5  1  0  0  0
  4 16  1  0  0  0
  5 29  1  0  0  0
  5 14  1  0  0  0
  5  6  1  0  0  0
  6  7  1  0  0  0
  7 30  1  0  0  0
  7  8  1  0  0  0
  7 10  1  0  0  0
  8  9  1  0  0  0
  9 38  1  0  0  0
  9 39  1  0  0  0
  9 40  1  0  0  0
 10 31  1  0  0  0
 10 11  1  0  0  0
 10 12  1  0  0  0
 11 41  1  0  0  0
 12 32  1  0  0  0
 12 13  1  0  0  0
 12 14  1  0  0  0
 13 42  1  0  0  0
 14 33  1  0  0  0
 14 15  1  0  0  0
 15 43  1  0  0  0
 16 34  1  0  0  0
 16 17  1  0  0  0
 16 18  1  0  0  0
 17 44  1  0  0  0
 18 45  1  0  0  0
 18 46  1  0  0  0
 18 47  1  0  0  0
 19 35  1  0  0  0
 19 27  1  0  0  0
 19 20  1  0  0  0
 20 21  1  0  0  0
 20 22  1  0  0  0
 20 62  1  0  0  0
 21 48  1  0  0  0
 21 49  1  0  0  0
 21 50  1  0  0  0
 22 23  1  0  0  0
 22 51  1  0  0  0
 22 52  1  0  0  0
 23 36  1  0  0  0
 23 24  1  0  0  0
 23 27  1  0  0  0
 24 25  1  0  0  0
 24 53  1  0  0  0
 24 54  1  0  0  0
 25 26  1  0  0  0
 25 55  1  0  0  0
 25 56  1  0  0  0
 26 57  1  0  0  0
 26 58  1  0  0  0
 26 59  1  0  0  0
 27 60  1  0  0  0
 27 61  1  0  0  0
M  CHG  1  20   1
M  END
> <s_m_source_file>
antibiotics.smi

> <i_m_source_file_index>
8

> <i_lp_mmshare_version>
45011

> <i_f3d_flags>
0

> <s_epik_input>
W0NIM11bQ0gyXVtDSDJdW0NASF0oW0NIMl0xKVtDSDJdTihbQ0gzXSlbQ0BASF0xQyg9TylbTkhdW0NASF0oW0NASF0oW09IXSlbQ0gzXSlbQ0BIXTJPW0NASF0oU1tDSDNdKVtDQEhdKFtPSF0pW0NAQEhdKFtPSF0pW0NASF0yW09IXQ==

> <s_epik_cmdline>
J2VwaWtfcHl0aG9uJywgJy1waCcsICc3LjInLCAnLXBodCcsICcwLjMnLCAnLW1zJywgJzEnLCAnLXRuJywgJzEnLCAnLW1hJywgJzIwMCcsICctaW1hZScsICc8aW5maWxlLm1hZT4nLCAnLW9tYWUnLCAnPG91dGZpbGUubWFlPic=

> <r_epik_Ionization_Penalty>
0.0199975

> <r_epik_Ionization_Penalty_Charging>
0.0199052

> <r_epik_Ionization_Penalty_Neutral>
9.23327e-05

> <r_epik_State_Penalty>
0.0159245

> <r_epik_Charging_Adjusted_Penalty>
0.0358298

> <i_epik_Tot_Q>
1

> <i_epik_Tot_abs_Q>
1

> <s_epik_Chemistry_Notes>
This compound contains an acetal/aminal-like group ( X-CH(R)-Y where X, Y are N, S, or O) that may be acid/base labile, releasing an aldehyde.

> <s_lp_Force_Field>
OPLS3e

> <r_lp_Energy>
28.7898

> <b_lp_Chiralities_Consistent>
1

> <s_lp_Variant>
Lincomycin-1

$$$$
Aztreonam
                    3D
 Structure written by MMmdl.
 43 44  0  0  1  0            999 V2000
    6.7310    1.9479    0.7967 O   0  0  0  0  0  0
    6.4708    3.2985    0.2863 S   0  0  0  0  0  0
    6.7087    4.3705    1.2592 O   0  0  0  0  0  0
    7.0007    3.5586   -1.0571 O   0  5  0  0  0  0
    4.7228    3.3180    0.0613 N   0  0  0  0  0  0
    3.8726    2.7797   -0.9583 C   0  0  0  0  0  0
    4.1227    2.1903   -2.0084 O   0  0  0  0  0  0
    2.6302    3.2351   -0.1598 C   0  0  1  0  0  0
    1.5171    2.2912   -0.2384 N   0  0  0  0  0  0
    0.6651    1.9883    0.7584 C   0  0  0  0  0  0
    0.6774    2.5149    1.8717 O   0  0  0  0  0  0
   -0.3313    0.9727    0.3873 C   0  0  0  0  0  0
   -0.0056   -0.2700    0.2860 N   0  0  0  0  0  0
    1.3496   -0.5776    0.6055 O   0  0  0  0  0  0
    1.7108   -1.9305    0.2661 C   0  0  0  0  0  0
    1.0117   -2.9254    1.2427 C   0  0  0  0  0  0
    0.7925   -4.0920    0.8426 O   0  0  0  0  0  0
    0.7240   -2.5117    2.3892 O   0  5  0  0  0  0
    1.4151   -2.2662   -1.2250 C   0  0  0  0  0  0
    3.2319   -1.9960    0.5265 C   0  0  0  0  0  0
   -1.7277    1.3866    0.1103 C   0  0  0  0  0  0
   -2.0743    2.6672    0.0397 N   0  0  0  0  0  0
   -3.3462    2.8250   -0.2211 C   0  0  0  0  0  0
   -4.2487    1.3609   -0.4167 S   0  0  0  0  0  0
   -2.7772    0.4861   -0.1184 C   0  0  0  0  0  0
   -3.9695    4.0326   -0.3432 N   0  0  0  0  0  0
    3.6364    3.2306    1.0724 C   0  0  2  0  0  0
    3.6292    4.2669    2.2038 C   0  0  0  0  0  0
    2.2544    4.2174   -0.4523 H   0  0  0  0  0  0
    3.6439    2.2548    1.5707 H   0  0  0  0  0  0
    1.4047    1.8286   -1.1287 H   0  0  0  0  0  0
    1.8304   -3.2334   -1.5127 H   0  0  0  0  0  0
    1.8544   -1.5179   -1.8854 H   0  0  0  0  0  0
    0.3456   -2.2982   -1.4374 H   0  0  0  0  0  0
    3.6386   -2.9872    0.3193 H   0  0  0  0  0  0
    3.4806   -1.7467    1.5598 H   0  0  0  0  0  0
    3.7674   -1.2878   -0.1077 H   0  0  0  0  0  0
   -2.7576   -0.5945   -0.1207 H   0  0  0  0  0  0
   -3.4628    4.8995   -0.2330 H   0  0  0  0  0  0
   -4.9582    4.1040   -0.5373 H   0  0  0  0  0  0
    2.7221    4.1849    2.8023 H   0  0  0  0  0  0
    3.6757    5.2814    1.8073 H   0  0  0  0  0  0
    4.4808    4.1288    2.8703 H   0  0  0  0  0  0
  1  2  2  0  0  0
  2  3  2  0  0  0
  2  4  1  0  0  0
  2  5  1  0  0  0
  5 27  1  0  0  0
  5  6  1  0  0  0
  6  7  2  0  0  0
  6  8  1  0  0  0
  8 29  1  0  0  0
  8  9  1  0  0  0
  8 27  1  0  0  0
  9 10  1  0  0  0
  9 31  1  0  0  0
 10 11  2  0  0  0
 10 12  1  0  0  0
 12 13  2  0  0  0
 12 21  1  0  0  0
 13 14  1  0  0  0
 14 15  1  0  0  0
 15 16  1  0  0  0
 15 19  1  0  0  0
 15 20  1  0  0  0
 16 17  2  0  0  0
 16 18  1  0  0  0
 19 32  1  0  0  0
 19 33  1  0  0  0
 19 34  1  0  0  0
 20 35  1  0  0  0
 20 36  1  0  0  0
 20 37  1  0  0  0
 21 25  2  0  0  0
 21 22  1  0  0  0
 22 23  2  0  0  0
 23 24  1  0  0  0
 23 26  1  0  0  0
 24 25  1  0  0  0
 25 38  1  0  0  0
 26 39  1  0  0  0
 26 40  1  0  0  0
 27 30  1  0  0  0
 27 28  1  0  0  0
 28 41  1  0  0  0
 28 42  1  0  0  0
 28 43  1  0  0  0
M  CHG  2   4  -1  18  -1
M  END
> <s_m_source_file>
antibiotics.smi

> <i_m_source_file_index>
9

> <i_lp_mmshare_version>
45011

> <i_f3d_flags>
0

> <s_epik_input>
Tz1TKD1PKShbT0hdKU4xQyg9TylbQ0BIXShbQ0BASF0xW0NIM10pW05IXUMoPU8pL0MoPU5cT0MoW0NIM10pKFtDSDNdKUMoPU8pW09IXSljMm5jKFtOSDJdKXNbY0hdMg==

> <s_epik_cmdline>
J2VwaWtfcHl0aG9uJywgJy1waCcsICc3LjInLCAnLXBodCcsICcwLjMnLCAnLW1zJywgJzEnLCAnLXRuJywgJzEnLCAnLW1hJywgJzIwMCcsICctaW1hZScsICc8aW5maWxlLm1hZT4nLCAnLW9tYWUnLCAnPG91dGZpbGUubWFlPic=

> <r_lp_tautomer_probability>
1

> <r_epik_Ionization_Penalty>
0.000677167

> <r_epik_Ionization_Penalty_Charging>
7.06331e-05

> <r_epik_Ionization_Penalty_Neutral>
0.000606534

> <r_epik_State_Penalty>
-0

> <r_epik_Charging_Adjusted_Penalty>
7.06331e-05

> <i_epik_Tot_Q>
-2

> <i_epik_Tot_abs_Q>
2

> <s_epik_Chemistry_Notes>
This compound has an imine and may undergo hydrolysis.

> <s_lp_Force_Field>
OPLS3e

> <r_lp_Energy>
50.8744

> <b_lp_Chiralities_Consistent>
1

> <s_lp_Variant>
Aztreonam-1

$$$$
Nitrofurantoin
                    3D
 Structure written by MMmdl.
 23 24  0  0  1  0            999 V2000
   -4.1046    1.7726    0.2184 O   0  0  0  0  0  0
   -2.9142    2.0179    0.3846 N   0  3  0  0  0  0
   -2.4672    3.0948    0.7671 O   0  5  0  0  0  0
   -1.9871    0.9696    0.1111 C   0  0  0  0  0  0
   -0.6592    1.2132    0.2881 O   0  0  0  0  0  0
    0.0229    0.0805   -0.0324 C   0  0  0  0  0  0
    1.4713    0.1261    0.0887 C   0  0  0  0  0  0
    2.1793   -0.8961   -0.1974 N   0  0  0  0  0  0
    3.5467   -0.8257   -0.0730 N   0  0  0  0  0  0
    4.3046   -1.8988   -0.3809 C   0  0  0  0  0  0
    3.9439   -3.0041   -0.7889 O   0  0  0  0  0  0
    5.5771   -1.5150   -0.1447 N   0  0  0  0  0  0
    5.7239   -0.2576    0.2955 C   0  0  0  0  0  0
    6.7669    0.3263    0.5812 O   0  0  0  0  0  0
    4.3332    0.3102    0.3739 C   0  0  0  0  0  0
   -0.8895   -0.8964   -0.4188 C   0  0  0  0  0  0
   -2.1634   -0.3351   -0.3275 C   0  0  0  0  0  0
    1.8535    1.0837    0.4333 H   0  0  0  0  0  0
    6.3627   -2.1324   -0.2883 H   0  0  0  0  0  0
    4.2208    1.1622   -0.2988 H   0  0  0  0  0  0
    4.0834    0.5896    1.3987 H   0  0  0  0  0  0
   -0.6553   -1.9035   -0.7317 H   0  0  0  0  0  0
   -3.1019   -0.8198   -0.5538 H   0  0  0  0  0  0
  1  2  2  0  0  0
  2  3  1  0  0  0
  2  4  1  0  0  0
  4 17  2  0  0  0
  4  5  1  0  0  0
  5  6  1  0  0  0
  6  7  1  0  0  0
  6 16  2  0  0  0
  7  8  2  0  0  0
  7 18  1  0  0  0
  8  9  1  0  0  0
  9 15  1  0  0  0
  9 10  1  0  0  0
 10 11  2  0  0  0
 10 12  1  0  0  0
 12 13  1  0  0  0
 12 19  1  0  0  0
 13 14  2  0  0  0
 13 15  1  0  0  0
 15 20  1  0  0  0
 15 21  1  0  0  0
 16 17  1  0  0  0
 16 22  1  0  0  0
 17 23  1  0  0  0
M  CHG  2   2   1   3  -1
M  END
> <s_m_source_file>
antibiotics.smi

> <i_m_source_file_index>
10

> <i_lp_mmshare_version>
45011

> <i_f3d_flags>
0

> <s_epik_input>
Tz1bTitdKFtPLV0pYzFvYyhbY0hdW2NIXTEpL1tDSF09Ti9OMkMoPU8pW05IXUMoPU8pW0NIMl0y

> <s_epik_cmdline>
J2VwaWtfcHl0aG9uJywgJy1waCcsICc3LjInLCAnLXBodCcsICcwLjMnLCAnLW1zJywgJzEnLCAnLXRuJywgJzEnLCAnLW1hJywgJzIwMCcsICctaW1hZScsICc8aW5maWxlLm1hZT4nLCAnLW9tYWUnLCAnPG91dGZpbGUubWFlPic=

> <r_lp_tautomer_probability>
0.99995

> <r_epik_Ionization_Penalty>
0.124708

> <r_epik_Ionization_Penalty_Charging>
0

> <r_epik_Ionization_Penalty_Neutral>
0.124708

> <r_epik_State_Penalty>
0.114177

> <r_epik_Charging_Adjusted_Penalty>
0.114177

> <i_epik_Tot_Q>
0

> <i_epik_Tot_abs_Q>
2

> <s_epik_Chemistry_Notes>
This compound has an imine and may undergo hydrolysis.

> <s_lp_Force_Field>
OPLS3e

> <r_lp_Energy>
7.05475

> <b_lp_Chiralities_Consistent>
1

> <s_lp_Variant>
Nitrofurantoin-1

$$$$
Linezolid
                    3D
 Structure written by MMmdl.
 44 46  0  0  1  0            999 V2000
   -1.1266    2.8663    1.4132 O   0  0  0  0  0  0
   -0.7652    1.7034    1.2397 C   0  0  0  0  0  0
   -0.5253    1.2173   -0.0002 O   0  0  0  0  0  0
    0.0546   -0.0673   -0.0053 C   0  0  1  0  0  0
    1.5536    0.0840   -0.3583 C   0  0  0  0  0  0
    2.2048   -1.1921   -0.6547 N   0  0  0  0  0  0
    2.8928   -1.9416    0.2235 C   0  0  0  0  0  0
    3.0615   -1.6370    1.4040 O   0  0  0  0  0  0
    3.4876   -3.2399   -0.3124 C   0  0  0  0  0  0
   -0.2412   -0.5426    1.3999 C   0  0  0  0  0  0
   -0.5081    0.6704    2.1561 N   0  0  0  0  0  0
   -0.7465    0.7158    3.5519 C   0  0  0  0  0  0
   -0.6878    1.9144    4.2792 C   0  0  0  0  0  0
   -0.9124    1.9314    5.6561 C   0  0  0  0  0  0
   -0.8088    3.1139    6.3091 F   0  0  0  0  0  0
   -1.2089    0.7469    6.3523 C   0  0  0  0  0  0
   -1.4118    0.7675    7.7319 N   0  0  0  0  0  0
   -2.5467    1.5414    8.2627 C   0  0  0  0  0  0
   -2.4143    1.8358    9.7724 C   0  0  0  0  0  0
   -2.2308    0.6309   10.5047 O   0  0  0  0  0  0
   -1.1085   -0.1211   10.0617 C   0  0  0  0  0  0
   -1.2293   -0.4393    8.5560 C   0  0  0  0  0  0
   -1.2346   -0.4532    5.6253 C   0  0  0  0  0  0
   -1.0109   -0.4696    4.2498 C   0  0  0  0  0  0
   -0.4480   -0.6998   -0.7379 H   0  0  0  0  0  0
    1.6506    0.6961   -1.2559 H   0  0  0  0  0  0
    2.0846    0.6282    0.4266 H   0  0  0  0  0  0
    2.1453   -1.5091   -1.6115 H   0  0  0  0  0  0
    3.3049   -3.3551   -1.3814 H   0  0  0  0  0  0
    3.0489   -4.0944    0.2031 H   0  0  0  0  0  0
    4.5651   -3.2560   -0.1473 H   0  0  0  0  0  0
   -1.1407   -1.1597    1.4159 H   0  0  0  0  0  0
    0.5707   -1.1297    1.8278 H   0  0  0  0  0  0
   -0.4448    2.8480    3.7954 H   0  0  0  0  0  0
   -2.6309    2.4954    7.7435 H   0  0  0  0  0  0
   -3.4754    1.0058    8.0587 H   0  0  0  0  0  0
   -1.5679    2.5045    9.9410 H   0  0  0  0  0  0
   -3.3057    2.3447   10.1396 H   0  0  0  0  0  0
   -0.1902    0.4405   10.2446 H   0  0  0  0  0  0
   -1.0444   -1.0422   10.6410 H   0  0  0  0  0  0
   -2.0484   -1.1381    8.3783 H   0  0  0  0  0  0
   -0.3132   -0.9424    8.2429 H   0  0  0  0  0  0
   -1.4418   -1.3925    6.1161 H   0  0  0  0  0  0
   -1.0522   -1.4196    3.7379 H   0  0  0  0  0  0
  1  2  2  0  0  0
  2 11  1  0  0  0
  2  3  1  0  0  0
  3  4  1  0  0  0
  4 25  1  0  0  0
  4  5  1  0  0  0
  4 10  1  0  0  0
  5  6  1  0  0  0
  5 26  1  0  0  0
  5 27  1  0  0  0
  6  7  1  0  0  0
  6 28  1  0  0  0
  7  8  2  0  0  0
  7  9  1  0  0  0
  9 29  1  0  0  0
  9 30  1  0  0  0
  9 31  1  0  0  0
 10 11  1  0  0  0
 10 32  1  0  0  0
 10 33  1  0  0  0
 11 12  1  0  0  0
 12 24  1  0  0  0
 12 13  2  0  0  0
 13 14  1  0  0  0
 13 34  1  0  0  0
 14 15  1  0  0  0
 14 16  2  0  0  0
 16 17  1  0  0  0
 16 23  1  0  0  0
 17 22  1  0  0  0
 17 18  1  0  0  0
 18 19  1  0  0  0
 18 35  1  0  0  0
 18 36  1  0  0  0
 19 20  1  0  0  0
 19 37  1  0  0  0
 19 38  1  0  0  0
 20 21  1  0  0  0
 21 22  1  0  0  0
 21 39  1  0  0  0
 21 40  1  0  0  0
 22 41  1  0  0  0
 22 42  1  0  0  0
 23 24  2  0  0  0
 23 43  1  0  0  0
 24 44  1  0  0  0
M  END
> <s_m_source_file>
antibiotics.smi

> <i_m_source_file_index>
11

> <i_lp_mmshare_version>
45011

> <i_f3d_flags>
0

> <s_epik_input>
Tz1DKFtDSDNdKVtOSF1bQ0gyXVtDQEhdKE9DMT1PKVtDSDJdTjFjMltjSF1jKEYpYyhbY0hdW2NIXTIpTjNbQ0gyXVtDSDJdT1tDSDJdW0NIMl0z

> <s_epik_cmdline>
J2VwaWtfcHl0aG9uJywgJy1waCcsICc3LjInLCAnLXBodCcsICcwLjMnLCAnLW1zJywgJzEnLCAnLXRuJywgJzEnLCAnLW1hJywgJzIwMCcsICctaW1hZScsICc8aW5maWxlLm1hZT4nLCAnLW9tYWUnLCAnPG91dGZpbGUubWFlPic=

> <r_lp_tautomer_probability>
1

> <r_epik_Ionization_Penalty>
3.41478e-07

> <r_epik_Ionization_Penalty_Charging>
0

> <r_epik_Ionization_Penalty_Neutral>
3.41478e-07

> <r_epik_State_Penalty>
-0

> <r_epik_Charging_Adjusted_Penalty>
0

> <i_epik_Tot_Q>
0

> <i_epik_Tot_abs_Q>
0

> <s_epik_Chemistry_Notes>
This compound has an ester and may undergo hydrolysis at high or low pH.

> <s_lp_Force_Field>
OPLS3e

> <r_lp_Energy>
16.3224

> <b_lp_Chiralities_Consistent>
1

> <s_lp_Variant>
Linezolid-1

$$$$
Ticarcillin
                    3D
 Structure written by MMmdl.
 39 41  0  0  1  0            999 V2000
   -3.2144    3.3688    3.5527 O   0  0  0  0  0  0
   -2.9834    2.7464    2.4925 C   0  0  0  0  0  0
   -3.8032    2.6259    1.5532 O   0  5  0  0  0  0
   -1.5751    2.1125    2.3571 C   0  0  2  0  0  0
   -1.4039    1.3918    1.0861 N   0  0  0  0  0  0
   -0.6363    1.8247   -0.0004 C   0  0  0  0  0  0
   -0.4364    2.9349   -0.4914 O   0  0  0  0  0  0
   -0.0978    0.3981   -0.2495 C   0  0  1  0  0  0
    1.3523    0.3311   -0.4157 N   0  0  0  0  0  0
    2.1001   -0.7654   -0.1964 C   0  0  0  0  0  0
    1.6077   -1.8409    0.1517 O   0  0  0  0  0  0
    3.6258   -0.6136   -0.4128 C   0  0  1  0  0  0
    4.4585   -1.7052    0.2643 C   0  0  0  0  0  0
    4.5300   -3.0589   -0.1257 C   0  0  0  0  0  0
    5.3668   -3.8339    0.6648 C   0  0  0  0  0  0
    6.1028   -2.9107    1.9263 S   0  0  0  0  0  0
    5.2758   -1.4915    1.3742 C   0  0  0  0  0  0
    4.0383   -0.4678   -1.8960 C   0  0  0  0  0  0
    3.5029   -1.2178   -2.7446 O   0  0  0  0  0  0
    4.9089    0.3923   -2.1573 O   0  5  0  0  0  0
   -0.7829    0.0676    1.1333 C   0  0  1  0  0  0
    0.0918    0.0703    2.7186 S   0  0  0  0  0  0
   -1.1798    1.1118    3.5018 C   0  0  0  0  0  0
   -0.5313    1.8328    4.7012 C   0  0  0  0  0  0
   -2.3174    0.1735    3.9833 C   0  0  0  0  0  0
   -0.8497    2.9279    2.3387 H   0  0  0  0  0  0
   -0.5507   -0.1059   -1.1053 H   0  0  0  0  0  0
    3.8801    0.3358    0.0645 H   0  0  0  0  0  0
   -1.5072   -0.7481    1.1218 H   0  0  0  0  0  0
    1.7981    1.1766   -0.7418 H   0  0  0  0  0  0
    3.9799   -3.4584   -0.9652 H   0  0  0  0  0  0
    5.5796   -4.8875    0.5627 H   0  0  0  0  0  0
    5.4267   -0.5566    1.8928 H   0  0  0  0  0  0
   -1.2443    2.4858    5.2049 H   0  0  0  0  0  0
    0.3117    2.4514    4.3907 H   0  0  0  0  0  0
   -0.1625    1.1239    5.4438 H   0  0  0  0  0  0
   -3.0885    0.7236    4.5235 H   0  0  0  0  0  0
   -1.9426   -0.5946    4.6611 H   0  0  0  0  0  0
   -2.8080   -0.3331    3.1518 H   0  0  0  0  0  0
  1  2  2  0  0  0
  2  3  1  0  0  0
  2  4  1  0  0  0
  4 26  1  0  0  0
  4 23  1  0  0  0
  4  5  1  0  0  0
  5 21  1  0  0  0
  5  6  1  0  0  0
  6  7  2  0  0  0
  6  8  1  0  0  0
  8 27  1  0  0  0
  8  9  1  0  0  0
  8 21  1  0  0  0
  9 10  1  0  0  0
  9 30  1  0  0  0
 10 11  2  0  0  0
 10 12  1  0  0  0
 12 28  1  0  0  0
 12 13  1  0  0  0
 12 18  1  0  0  0
 13 17  2  0  0  0
 13 14  1  0  0  0
 14 15  2  0  0  0
 14 31  1  0  0  0
 15 16  1  0  0  0
 15 32  1  0  0  0
 16 17  1  0  0  0
 17 33  1  0  0  0
 18 19  2  0  0  0
 18 20  1  0  0  0
 21 29  1  0  0  0
 21 22  1  0  0  0
 22 23  1  0  0  0
 23 24  1  0  0  0
 23 25  1  0  0  0
 24 34  1  0  0  0
 24 35  1  0  0  0
 24 36  1  0  0  0
 25 37  1  0  0  0
 25 38  1  0  0  0
 25 39  1  0  0  0
M  CHG  2   3  -1  20  -1
M  END
> <s_m_source_file>
antibiotics.smi

> <i_m_source_file_index>
12

> <i_lp_mmshare_version>
45011

> <i_f3d_flags>
0

> <s_epik_input>
Tz1DKFtPSF0pW0NASF0xQyhbQ0gzXSkoW0NIM10pU1tDQEBIXShOMTIpW0NAQEhdKEMyPU8pW05IXUMoPU8pW0NASF0oQyg9TylbT0hdKWMzW2NIXVtjSF1zW2NIXTM=

> <s_epik_cmdline>
J2VwaWtfcHl0aG9uJywgJy1waCcsICc3LjInLCAnLXBodCcsICcwLjMnLCAnLW1zJywgJzEnLCAnLXRuJywgJzEnLCAnLW1hJywgJzIwMCcsICctaW1hZScsICc8aW5maWxlLm1hZT4nLCAnLW9tYWUnLCAnPG91dGZpbGUubWFlPic=

> <r_lp_tautomer_probability>
1

> <r_epik_Ionization_Penalty>
6.83083e-05

> <r_epik_Ionization_Penalty_Charging>
6.8217e-05

> <r_epik_Ionization_Penalty_Neutral>
9.12776e-08

> <r_epik_State_Penalty>
-0

> <r_epik_Charging_Adjusted_Penalty>
6.8217e-05

> <i_epik_Tot_Q>
-2

> <i_epik_Tot_abs_Q>
2

> <s_epik_Chemistry_Notes>
This compound contains an acetal/aminal-like group ( X-CH(R)-Y where X, Y are N, S, or O) that may be acid/base labile, releasing an aldehyde.

> <s_lp_Force_Field>
OPLS3e

> <r_lp_Energy>
16.6309

> <b_lp_Chiralities_Consistent>
1

> <s_lp_Variant>
Ticarcillin-1

$$$$
Ciprofloxacin
                    3D
 Structure written by MMmdl.
 42 45  0  0  1  0            999 V2000
   -0.4431   -1.9546   -0.5179 C   0  0  0  0  0  0
   -0.5559   -1.4737    0.8986 C   0  0  0  0  0  0
   -0.0097   -0.5377   -0.1671 C   0  0  0  0  0  0
    1.4252   -0.2285   -0.1210 N   0  0  0  0  0  0
    2.2251   -0.6429   -1.1745 C   0  0  0  0  0  0
    3.5743   -0.4886   -1.2715 C   0  0  0  0  0  0
    4.2854    0.2056   -0.1633 C   0  0  0  0  0  0
    5.5068    0.3677   -0.1157 O   0  0  0  0  0  0
    3.3901    0.7423    0.9306 C   0  0  0  0  0  0
    3.9544    1.4684    1.9888 C   0  0  0  0  0  0
    3.1676    1.9959    3.0102 C   0  0  0  0  0  0
    1.7745    1.8289    3.0004 C   0  0  0  0  0  0
    1.2094    1.0819    1.9569 C   0  0  0  0  0  0
    1.9936    0.5358    0.9292 C   0  0  0  0  0  0
    0.9890    2.3460    4.0309 N   0  0  0  0  0  0
    1.0088    3.8031    4.2652 C   0  0  0  0  0  0
    0.4978    4.2483    5.6507 C   0  0  0  0  0  0
   -0.8891    3.6527    5.9116 N   0  3  0  0  0  0
   -0.8555    2.1286    5.7677 C   0  0  0  0  0  0
   -0.3150    1.7466    4.3747 C   0  0  0  0  0  0
    3.7830    2.6543    4.0218 F   0  0  0  0  0  0
    4.2542   -1.0625   -2.5712 C   0  0  0  0  0  0
    5.4879   -0.8718   -2.6555 O   0  0  0  0  0  0
    3.5073   -1.6495   -3.3890 O   0  5  0  0  0  0
   -1.3496   -2.0811   -1.1096 H   0  0  0  0  0  0
    0.3104   -2.7064   -0.7554 H   0  0  0  0  0  0
   -1.5428   -1.2628    1.3108 H   0  0  0  0  0  0
    0.1277   -1.8741    1.6482 H   0  0  0  0  0  0
   -0.6393    0.3004   -0.4675 H   0  0  0  0  0  0
    1.6625   -1.1252   -1.9623 H   0  0  0  0  0  0
    5.0222    1.6319    2.0347 H   0  0  0  0  0  0
    0.1402    0.9385    1.9371 H   0  0  0  0  0  0
    1.9879    4.2399    4.0699 H   0  0  0  0  0  0
    0.3230    4.2131    3.5216 H   0  0  0  0  0  0
    1.1413    3.9178    6.4677 H   0  0  0  0  0  0
    0.3554    5.3275    5.7119 H   0  0  0  0  0  0
   -1.2037    3.9052    6.8378 H   0  0  0  0  0  0
   -0.2351    1.7511    6.5822 H   0  0  0  0  0  0
   -1.8872    1.8077    5.9154 H   0  0  0  0  0  0
   -1.0188    2.1328    3.6350 H   0  0  0  0  0  0
   -0.2795    0.6606    4.2759 H   0  0  0  0  0  0
   -1.5497    4.0372    5.2510 H   0  0  0  0  0  0
  1  3  1  0  0  0
  1  2  1  0  0  0
  1 25  1  0  0  0
  1 26  1  0  0  0
  2  3  1  0  0  0
  2 27  1  0  0  0
  2 28  1  0  0  0
  3  4  1  0  0  0
  3 29  1  0  0  0
  4 14  1  0  0  0
  4  5  1  0  0  0
  5  6  2  0  0  0
  5 30  1  0  0  0
  6  7  1  0  0  0
  6 22  1  0  0  0
  7  8  2  0  0  0
  7  9  1  0  0  0
  9 14  1  0  0  0
  9 10  2  0  0  0
 10 11  1  0  0  0
 10 31  1  0  0  0
 11 12  2  0  0  0
 11 21  1  0  0  0
 12 13  1  0  0  0
 12 15  1  0  0  0
 13 14  2  0  0  0
 13 32  1  0  0  0
 15 20  1  0  0  0
 15 16  1  0  0  0
 16 17  1  0  0  0
 16 33  1  0  0  0
 16 34  1  0  0  0
 17 18  1  0  0  0
 17 35  1  0  0  0
 17 36  1  0  0  0
 18 19  1  0  0  0
 18 37  1  0  0  0
 18 42  1  0  0  0
 19 20  1  0  0  0
 19 38  1  0  0  0
 19 39  1  0  0  0
 20 40  1  0  0  0
 20 41  1  0  0  0
 22 23  2  0  0  0
 22 24  1  0  0  0
M  CHG  2  18   1  24  -1
M  END
> <s_m_source_file>
antibiotics.smi

> <i_m_source_file_index>
13

> <i_lp_mmshare_version>
45011

> <i_f3d_flags>
0

> <s_epik_input>
Tz1jMWMoQyg9TylbT0hdKVtjSF1uKFtDSF0yW0NIMl1bQ0gyXTIpYyhjMTMpW2NIXWMoYyhGKVtjSF0zKU40W0NIMl1bQ0gyXVtOSF1bQ0gyXVtDSDJdNA==

> <s_epik_cmdline>
J2VwaWtfcHl0aG9uJywgJy1waCcsICc3LjInLCAnLXBodCcsICcwLjMnLCAnLW1zJywgJzEnLCAnLXRuJywgJzEnLCAnLW1hJywgJzIwMCcsICctaW1hZScsICc8aW5maWxlLm1hZT4nLCAnLW9tYWUnLCAnPG91dGZpbGUubWFlPic=

> <r_epik_Ionization_Penalty>
0.0858172

> <r_epik_Ionization_Penalty_Charging>
0.0858172

> <r_epik_Ionization_Penalty_Neutral>
6.77657e-12

> <r_epik_State_Penalty>
0.0630407

> <r_epik_Charging_Adjusted_Penalty>
0.148858

> <i_epik_Tot_Q>
0

> <i_epik_Tot_abs_Q>
2

> <s_lp_Force_Field>
OPLS3e

> <r_lp_Energy>
41.2393

> <b_lp_Chiralities_Consistent>
1

> <s_lp_Variant>
Ciprofloxacin-1

$$$$
Doxycycline
                    3D
 Structure written by MMmdl.
 56 59  0  0  1  0            999 V2000
   -1.3776   -0.7094   -0.2574 C   0  0  0  0  0  0
   -0.3546   -0.2669    0.8099 N   0  3  0  0  0  0
   -0.1014   -1.4124    1.8157 C   0  0  0  0  0  0
    0.9279    0.3903    0.2086 C   0  0  2  0  0  0
    1.8813   -0.6550   -0.4080 C   0  0  0  0  0  0
    1.5077   -0.9243   -1.6145 O   0  5  0  0  0  0
    2.9841   -1.1792    0.2046 C   0  0  0  0  0  0
    3.8387   -2.1873   -0.4350 C   0  0  0  0  0  0
    5.1387   -2.1628   -0.1130 N   0  0  0  0  0  0
    3.4171   -3.0259   -1.2307 O   0  0  0  0  0  0
    3.2811   -0.6558    1.5534 C   0  0  0  0  0  0
    3.6822   -1.3934    2.4592 O   0  0  0  0  0  0
    3.0912    0.8842    1.7229 C   0  0  1  0  0  0
    3.2990    1.2061    3.0946 O   0  0  0  0  0  0
    4.1318    1.6728    0.8796 C   0  0  0  0  0  0
    5.3966    1.1969    1.1055 O   0  0  0  0  0  0
    3.8498    2.7096    0.0412 C   0  0  0  0  0  0
    4.9004    3.3796   -0.7503 C   0  0  0  0  0  0
    6.0498    3.5350   -0.3313 O   0  0  0  0  0  0
    4.4559    3.8402   -2.1314 C   0  0  0  0  0  0
    3.1054    3.6880   -2.5646 C   0  0  0  0  0  0
    2.7641    4.1252   -3.8563 C   0  0  0  0  0  0
    3.6919    4.7042   -4.7084 C   0  0  0  0  0  0
    5.0004    4.8622   -4.2885 C   0  0  0  0  0  0
    5.3879    4.4390   -3.0205 C   0  0  0  0  0  0
    6.7117    4.6387   -2.7102 O   0  0  0  0  0  0
    2.0385    3.0612   -1.6311 C   0  0  2  0  0  0
    0.5924    3.5304   -1.9442 C   0  0  0  0  0  0
    2.4440    3.2939   -0.1455 C   0  0  1  0  0  0
    1.4964    2.8012    0.9966 C   0  0  2  0  0  0
    1.7184    3.5809    2.1615 O   0  0  0  0  0  0
    1.6166    1.2813    1.3168 C   0  0  1  0  0  0
    0.5218    1.0453   -0.5602 H   0  0  0  0  0  0
    2.0738    1.9912   -1.8363 H   0  0  0  0  0  0
    2.5073    4.3805   -0.0304 H   0  0  0  0  0  0
    0.4588    3.0361    0.7685 H   0  0  0  0  0  0
    1.0124    1.1547    2.2183 H   0  0  0  0  0  0
   -0.9628   -1.5613   -0.7972 H   0  0  0  0  0  0
   -1.5552    0.1402   -0.9178 H   0  0  0  0  0  0
   -2.2916   -0.9839    0.2704 H   0  0  0  0  0  0
    0.3508   -2.2445    1.2743 H   0  0  0  0  0  0
   -1.0688   -1.6927    2.2338 H   0  0  0  0  0  0
    0.5575   -1.0392    2.5988 H   0  0  0  0  0  0
    5.4882   -1.4793    0.5426 H   0  0  0  0  0  0
    5.7735   -2.8315   -0.5231 H   0  0  0  0  0  0
    4.1947    0.9511    3.3291 H   0  0  0  0  0  0
    6.0250    1.7081    0.5890 H   0  0  0  0  0  0
    1.7602    4.0199   -4.2345 H   0  0  0  0  0  0
    3.3947    5.0294   -5.6946 H   0  0  0  0  0  0
    5.7179    5.3145   -4.9581 H   0  0  0  0  0  0
    7.2035    5.0551   -3.4214 H   0  0  0  0  0  0
    0.2739    3.2262   -2.9406 H   0  0  0  0  0  0
    0.5034    4.6153   -1.8754 H   0  0  0  0  0  0
   -0.1488    3.1007   -1.2747 H   0  0  0  0  0  0
    1.1226    3.2807    2.8517 H   0  0  0  0  0  0
   -0.8113    0.4692    1.3301 H   0  0  0  0  0  0
  1  2  1  0  0  0
  1 38  1  0  0  0
  1 39  1  0  0  0
  1 40  1  0  0  0
  2  3  1  0  0  0
  2  4  1  0  0  0
  2 56  1  0  0  0
  3 41  1  0  0  0
  3 42  1  0  0  0
  3 43  1  0  0  0
  4 33  1  0  0  0
  4 32  1  0  0  0
  4  5  1  0  0  0
  5  6  1  0  0  0
  5  7  2  0  0  0
  7  8  1  0  0  0
  7 11  1  0  0  0
  8  9  1  0  0  0
  8 10  2  0  0  0
  9 44  1  0  0  0
  9 45  1  0  0  0
 11 12  2  0  0  0
 11 13  1  0  0  0
 13 32  1  0  0  0
 13 14  1  0  0  0
 13 15  1  0  0  0
 14 46  1  0  0  0
 15 16  1  0  0  0
 15 17  2  0  0  0
 16 47  1  0  0  0
 17 29  1  0  0  0
 17 18  1  0  0  0
 18 19  2  0  0  0
 18 20  1  0  0  0
 20 25  2  0  0  0
 20 21  1  0  0  0
 21 22  2  0  0  0
 21 27  1  0  0  0
 22 23  1  0  0  0
 22 48  1  0  0  0
 23 24  2  0  0  0
 23 49  1  0  0  0
 24 25  1  0  0  0
 24 50  1  0  0  0
 25 26  1  0  0  0
 26 51  1  0  0  0
 27 34  1  0  0  0
 27 28  1  0  0  0
 27 29  1  0  0  0
 28 52  1  0  0  0
 28 53  1  0  0  0
 28 54  1  0  0  0
 29 35  1  0  0  0
 29 30  1  0  0  0
 30 36  1  0  0  0
 30 31  1  0  0  0
 30 32  1  0  0  0
 31 55  1  0  0  0
 32 37  1  0  0  0
M  CHG  2   2   1   6  -1
M  END
> <s_m_source_file>
antibiotics.smi

> <i_m_source_file_index>
14

> <i_lp_mmshare_version>
45011

> <i_f3d_flags>
0

> <s_epik_input>
W05IMl1DKD1PKUMoQzE9Tyk9QyhbT0hdKVtDQEBIXShOKFtDSDNdKVtDSDNdKVtDQEBIXShbQ0BAXTEyW09IXSlbQ0BASF0oW09IXSlbQ0BIXTNDKD1DMltPSF0pQyg9TyljNGMoW0NAQEhdM1tDSDNdKVtjSF1bY0hdW2NIXWM0W09IXQ==

> <s_epik_cmdline>
J2VwaWtfcHl0aG9uJywgJy1waCcsICc3LjInLCAnLXBodCcsICcwLjMnLCAnLW1zJywgJzEnLCAnLXRuJywgJzEnLCAnLW1hJywgJzIwMCcsICctaW1hZScsICc8aW5maWxlLm1hZT4nLCAnLW9tYWUnLCAnPG91dGZpbGUubWFlPic=

> <r_epik_Ionization_Penalty>
0.379754

> <r_epik_Ionization_Penalty_Charging>
0.336291

> <r_epik_Ionization_Penalty_Neutral>
0.0434632

> <r_epik_State_Penalty>
0.331604

> <r_epik_Charging_Adjusted_Penalty>
0.667894

> <i_epik_Tot_Q>
0

> <i_epik_Tot_abs_Q>
2

> <s_lp_Force_Field>
OPLS3e

> <r_lp_Energy>
56.2833

> <b_lp_Chiralities_Consistent>
1

> <s_lp_Variant>
Doxycycline-1

$$$$
Clofazimine
                    3D
 Structure written by MMmdl.
 56 60  0  0  1  0            999 V2000
   -0.5924   -0.6547    1.0218 C   0  0  0  0  0  0
    0.0823   -0.0702   -0.2345 C   0  0  0  0  0  0
   -0.1451   -0.9427   -1.4789 C   0  0  0  0  0  0
    1.5566    0.0556   -0.0147 N   0  3  0  0  0  0
    2.1969    1.0386    0.6350 C   0  0  0  0  0  0
    1.4983    2.1089    1.2323 C   0  0  0  0  0  0
    2.1165    3.1297    1.9031 C   0  0  0  0  0  0
    1.4286    4.2050    2.5298 N   0  0  0  0  0  0
    2.1253    5.2792    3.1633 C   0  0  0  0  0  0
    1.5091    6.3770    3.7868 C   0  0  0  0  0  0
    2.2833    7.3740    4.3802 C   0  0  0  0  0  0
    3.6745    7.2841    4.3637 C   0  0  0  0  0  0
    4.2987    6.1945    3.7574 C   0  0  0  0  0  0
    3.5303    5.1920    3.1593 C   0  0  0  0  0  0
    4.2210    4.1169    2.5861 N   0  0  0  0  0  0
    3.5817    3.1734    2.0089 C   0  0  0  0  0  0
    4.2469    2.0581    1.3948 C   0  0  0  0  0  0
    3.6149    1.0285    0.7544 C   0  0  0  0  0  0
    4.3312    0.0031    0.1483 N   0  0  0  0  0  0
    5.4268   -0.7343    0.6347 C   0  0  0  0  0  0
    6.0203   -1.6528   -0.2350 C   0  0  0  0  0  0
    7.1009   -2.4237    0.1855 C   0  0  0  0  0  0
    7.5864   -2.2831    1.4836 C   0  0  0  0  0  0
    6.9960   -1.3791    2.3640 C   0  0  0  0  0  0
    5.9160   -0.6077    1.9428 C   0  0  0  0  0  0
    8.9242   -3.2400    2.0070 Cl  0  0  0  0  0  0
    0.0153    4.2315    2.5034 C   0  0  0  0  0  0
   -0.7153    3.3580    3.3168 C   0  0  0  0  0  0
   -2.1067    3.3717    3.2803 C   0  0  0  0  0  0
   -2.7675    4.2583    2.4319 C   0  0  0  0  0  0
   -2.0469    5.1311    1.6184 C   0  0  0  0  0  0
   -0.6551    5.1177    1.6530 C   0  0  0  0  0  0
   -4.4928    4.2740    2.3872 Cl  0  0  0  0  0  0
   -1.6701   -0.7410    0.8794 H   0  0  0  0  0  0
   -0.4335   -0.0244    1.8974 H   0  0  0  0  0  0
   -0.2103   -1.6492    1.2568 H   0  0  0  0  0  0
   -0.2979    0.9302   -0.4458 H   0  0  0  0  0  0
   -1.2086   -1.0360   -1.7008 H   0  0  0  0  0  0
    0.2530   -1.9494   -1.3447 H   0  0  0  0  0  0
    0.3324   -0.5106   -2.3593 H   0  0  0  0  0  0
    0.4227    2.1079    1.1624 H   0  0  0  0  0  0
    0.4340    6.4707    3.8221 H   0  0  0  0  0  0
    1.8039    8.2173    4.8554 H   0  0  0  0  0  0
    4.2702    8.0582    4.8250 H   0  0  0  0  0  0
    5.3781    6.1348    3.7581 H   0  0  0  0  0  0
    5.3279    2.0406    1.4209 H   0  0  0  0  0  0
    3.9887   -0.3514   -0.7329 H   0  0  0  0  0  0
    5.6508   -1.7720   -1.2437 H   0  0  0  0  0  0
    7.5577   -3.1280   -0.4945 H   0  0  0  0  0  0
    7.3688   -1.2782    3.3730 H   0  0  0  0  0  0
    5.4624    0.0690    2.6509 H   0  0  0  0  0  0
   -0.2059    2.6672    3.9734 H   0  0  0  0  0  0
   -2.6687    2.6958    3.9083 H   0  0  0  0  0  0
   -2.5628    5.8155    0.9606 H   0  0  0  0  0  0
   -0.0990    5.7923    1.0179 H   0  0  0  0  0  0
    2.1248   -0.6902   -0.4057 H   0  0  0  0  0  0
  1  2  1  0  0  0
  1 34  1  0  0  0
  1 35  1  0  0  0
  1 36  1  0  0  0
  2  3  1  0  0  0
  2  4  1  0  0  0
  2 37  1  0  0  0
  3 38  1  0  0  0
  3 39  1  0  0  0
  3 40  1  0  0  0
  4  5  2  0  0  0
  4 56  1  0  0  0
  5 18  1  0  0  0
  5  6  1  0  0  0
  6  7  2  0  0  0
  6 41  1  0  0  0
  7 16  1  0  0  0
  7  8  1  0  0  0
  8  9  1  0  0  0
  8 27  1  0  0  0
  9 14  2  0  0  0
  9 10  1  0  0  0
 10 11  2  0  0  0
 10 42  1  0  0  0
 11 12  1  0  0  0
 11 43  1  0  0  0
 12 13  2  0  0  0
 12 44  1  0  0  0
 13 14  1  0  0  0
 13 45  1  0  0  0
 14 15  1  0  0  0
 15 16  2  0  0  0
 16 17  1  0  0  0
 17 18  2  0  0  0
 17 46  1  0  0  0
 18 19  1  0  0  0
 19 20  1  0  0  0
 19 47  1  0  0  0
 20 25  1  0  0  0
 20 21  2  0  0  0
 21 22  1  0  0  0
 21 48  1  0  0  0
 22 23  2  0  0  0
 22 49  1  0  0  0
 23 24  1  0  0  0
 23 26  1  0  0  0
 24 25  2  0  0  0
 24 50  1  0  0  0
 25 51  1  0  0  0
 27 32  1  0  0  0
 27 28  2  0  0  0
 28 29  1  0  0  0
 28 52  1  0  0  0
 29 30  2  0  0  0
 29 53  1  0  0  0
 30 31  1  0  0  0
 30 33  1  0  0  0
 31 32  2  0  0  0
 31 54  1  0  0  0
 32 55  1  0  0  0
M  CHG  1   4   1
M  END
> <s_m_source_file>
antibiotics.smi

> <i_m_source_file_index>
15

> <i_lp_mmshare_version>
45011

> <i_f3d_flags>
0

> <s_epik_input>
W2NIXTFbY0hdYyhDbClbY0hdW2NIXWMxW05IXWMoYyhcW2NIXTIpPU5cW0NIXShbQ0gzXSlbQ0gzXSlbY0hdYyhjMjMpbmM0YyhbY0hdW2NIXVtjSF1bY0hdNCluMy1jNVtjSF1bY0hdYyhDbClbY0hdW2NIXTU=

> <s_epik_cmdline>
J2VwaWtfcHl0aG9uJywgJy1waCcsICc3LjInLCAnLXBodCcsICcwLjMnLCAnLW1zJywgJzEnLCAnLXRuJywgJzEnLCAnLW1hJywgJzIwMCcsICctaW1hZScsICc8aW5maWxlLm1hZT4nLCAnLW9tYWUnLCAnPG91dGZpbGUubWFlPic=

> <r_lp_tautomer_probability>
1

> <r_epik_Ionization_Penalty>
0.00755185

> <r_epik_Ionization_Penalty_Charging>
0.00755177

> <r_epik_Ionization_Penalty_Neutral>
8.15976e-08

> <r_epik_State_Penalty>
-0

> <r_epik_Charging_Adjusted_Penalty>
0.00755177

> <i_epik_Tot_Q>
1

> <i_epik_Tot_abs_Q>
1

> <s_epik_Chemistry_Notes>
This compound has an imine and may undergo hydrolysis.

> <s_lp_Force_Field>
OPLS3e

> <r_lp_Energy>
91.5306

> <b_lp_Chiralities_Consistent>
1

> <s_lp_Variant>
Clofazimine-1

$$$$
